aryne_157 1
     RDKit          3D

 14 15  0  0  0  0  0  0  0  0999 V2000
   -0.5879    2.6634    0.7348 O   0  0  0  0  0  0  0  0  0  0  0  0
   -0.3725    1.8012   -0.1028 C   0  0  0  0  0  0  0  0  0  0  0  0
   -0.3677    2.0626   -1.5194 C   0  0  0  0  0  0  0  0  0  0  0  0
   -0.1622    1.2507   -2.3724 C   0  0  0  0  0  0  0  0  0  0  0  0
    0.1239   -0.1538   -2.1868 C   0  0  0  0  0  0  0  0  0  0  0  0
    0.3189   -0.8964   -3.1335 O   0  0  0  0  0  0  0  0  0  0  0  0
    0.1497   -0.5705   -0.7240 C   0  0  0  0  0  0  0  0  0  0  0  0
    0.4171   -1.9065   -0.4369 O   0  0  0  0  0  0  0  0  0  0  0  0
    0.4369   -2.2796    0.9511 N   0  0  0  0  0  0  0  0  0  0  0  0
    0.2055   -1.3477    1.8213 C   0  0  0  0  0  0  0  0  0  0  0  0
   -0.0562   -0.0430    1.5541 N   0  0  0  0  0  0  0  0  0  0  0  0
   -0.0836    0.3505    0.2445 C   0  0  0  0  0  0  0  0  0  0  0  0
    0.2098   -1.5841    2.8981 H   0  0  0  0  0  0  0  0  0  0  0  0
   -0.2319    0.6533    2.2719 H   0  0  0  0  0  0  0  0  0  0  0  0
  1  2  2  0
  2  3  1  0
  3  4  3  0
  4  5  1  0
  5  6  2  0
  5  7  1  0
  7  8  1  0
  8  9  1  0
  9 10  2  0
 10 11  1  0
 11 12  1  0
 12  2  1  0
 12  7  2  0
 10 13  1  0
 11 14  1  0
M  END
>  <Energy>  (1) 
101.67450744250506

>  <Real charge>  (1) 
0

>  <Mult>  (1) 
1

>  <SMILES>  (1) 
O=c1c#cc(=O)c2onc[nH]c1=2

$$$$
