aryne_255 4
     RDKit          3D

 13 14  0  0  0  0  0  0  0  0999 V2000
    0.9149    2.5881    0.7889 O   0  0  0  0  0  0  0  0  0  0  0  0
    0.8893    1.3699    0.7434 C   0  0  0  0  0  0  0  0  0  0  0  0
    1.8572    0.6275    1.5071 C   0  0  0  0  0  0  0  0  0  0  0  0
    1.8833   -0.5629    1.5039 C   0  0  0  0  0  0  0  0  0  0  0  0
    1.1222   -1.4607    0.8732 N   0  0  0  0  0  0  0  0  0  0  0  0
    0.2075   -0.8617    0.1494 C   0  0  0  0  0  0  0  0  0  0  0  0
   -0.7283   -1.6969   -0.6205 C   0  0  0  0  0  0  0  0  0  0  0  0
   -1.6612   -1.2168   -1.3614 N   0  0  0  0  0  0  0  0  0  0  0  0
   -1.7965    0.1820   -1.4418 O   0  0  0  0  0  0  0  0  0  0  0  0
   -0.9660    1.0483   -0.7559 C   0  0  0  0  0  0  0  0  0  0  0  0
   -1.1677    2.2529   -0.8938 O   0  0  0  0  0  0  0  0  0  0  0  0
    0.0290    0.5151    0.0338 N   0  0  0  0  0  0  0  0  0  0  0  0
   -0.5836   -2.7849   -0.5263 H   0  0  0  0  0  0  0  0  0  0  0  0
  1  2  2  0
  2  3  1  0
  3  4  3  0
  4  5  1  0
  5  6  2  0
  6  7  1  0
  7  8  2  0
  8  9  1  0
  9 10  1  0
 10 11  2  0
 10 12  1  0
 12  2  1  0
 12  6  1  0
  7 13  1  0
M  END
>  <Energy>  (1) 
42.15891653093339

>  <Real charge>  (1) 
0

>  <Mult>  (1) 
1

>  <SMILES>  (1) 
O=c1c#cnc2cnoc(=O)n12

$$$$
