aryne_14 26
     RDKit          3D

 13 14  0  0  0  0  0  0  0  0999 V2000
   -1.3388   -2.5412    0.1119 O   0  0  0  0  0  0  0  0  0  0  0  0
   -1.1541   -1.3419   -0.0367 C   0  0  0  0  0  0  0  0  0  0  0  0
   -2.2146   -0.3867    0.1531 C   0  0  0  0  0  0  0  0  0  0  0  0
   -2.1032    0.7986    0.0819 C   0  0  0  0  0  0  0  0  0  0  0  0
   -0.9352    1.5949   -0.2644 N   0  0  0  0  0  0  0  0  0  0  0  0
    0.1688    0.6937   -0.5330 N   0  0  0  0  0  0  0  0  0  0  0  0
    1.4445    1.0018   -0.0519 C   0  0  0  0  0  0  0  0  0  0  0  0
    1.8376    2.1231    0.2370 O   0  0  0  0  0  0  0  0  0  0  0  0
    2.1444   -0.1811    0.1477 N   0  0  0  0  0  0  0  0  0  0  0  0
    1.2882   -1.1352   -0.0101 C   0  0  0  0  0  0  0  0  0  0  0  0
    0.0483   -0.7230   -0.4052 N   0  0  0  0  0  0  0  0  0  0  0  0
   -0.6393    2.3060    0.4135 H   0  0  0  0  0  0  0  0  0  0  0  0
    1.4534   -2.2089    0.1561 H   0  0  0  0  0  0  0  0  0  0  0  0
  1  2  2  0
  2  3  1  0
  3  4  3  0
  4  5  1  0
  5  6  1  0
  6  7  1  0
  7  8  2  0
  7  9  1  0
  9 10  2  0
 10 11  1  0
 11  2  1  0
 11  6  1  0
  5 12  1  0
 10 13  1  0
M  END
>  <Energy>  (1) 
61.00194376794081

>  <Real charge>  (1) 
0

>  <Mult>  (1) 
1

>  <SMILES>  (1) 
O=c1c#c[nH]n2c(=O)ncn12

$$$$
aryne_14 22
     RDKit          3D

 13 14  0  0  0  0  0  0  0  0999 V2000
    0.9110   -2.7188   -0.4407 O   0  0  0  0  0  0  0  0  0  0  0  0
    0.8066   -1.5992    0.0378 C   0  0  0  0  0  0  0  0  0  0  0  0
    1.7663   -1.0805    0.9817 C   0  0  0  0  0  0  0  0  0  0  0  0
    1.7828    0.0351    1.4063 C   0  0  0  0  0  0  0  0  0  0  0  0
    0.8647    1.1354    1.1269 N   0  0  0  0  0  0  0  0  0  0  0  0
   -0.2754    0.5868    0.4322 N   0  0  0  0  0  0  0  0  0  0  0  0
   -1.0755    1.3951   -0.3785 C   0  0  0  0  0  0  0  0  0  0  0  0
   -1.2516    2.5967   -0.2398 O   0  0  0  0  0  0  0  0  0  0  0  0
   -1.6202    0.6067   -1.3899 N   0  0  0  0  0  0  0  0  0  0  0  0
   -1.0581   -0.5520   -1.2887 C   0  0  0  0  0  0  0  0  0  0  0  0
   -0.2067   -0.6644   -0.2272 N   0  0  0  0  0  0  0  0  0  0  0  0
    0.5409    1.6781    1.9310 H   0  0  0  0  0  0  0  0  0  0  0  0
   -1.1849   -1.4190   -1.9511 H   0  0  0  0  0  0  0  0  0  0  0  0
  1  2  2  0
  2  3  1  0
  3  4  3  0
  4  5  1  0
  5  6  1  0
  6  7  1  0
  7  8  2  0
  7  9  1  0
  9 10  2  0
 10 11  1  0
 11  2  1  0
 11  6  1  0
  5 12  1  0
 10 13  1  0
M  END
>  <Energy>  (2) 
61.78119395455321

>  <Real charge>  (2) 
0

>  <Mult>  (2) 
1

>  <SMILES>  (2) 
O=c1c#c[nH]n2c(=O)ncn12

$$$$
