aryne_11 3
     RDKit          3D

 13 14  0  0  0  0  0  0  0  0999 V2000
    3.0443   -1.0390   -0.8030 O   0  0  0  0  0  0  0  0  0  0  0  0
    2.0922   -0.2782   -0.6977 C   0  0  0  0  0  0  0  0  0  0  0  0
    2.1344    0.7715    0.1680 O   0  0  0  0  0  0  0  0  0  0  0  0
    1.0051    1.4542    0.3910 C   0  0  0  0  0  0  0  0  0  0  0  0
    0.9630    2.6612    0.5619 O   0  0  0  0  0  0  0  0  0  0  0  0
   -0.2583    0.6132    0.5302 C   0  0  0  0  0  0  0  0  0  0  0  0
   -1.0458    0.7764    1.5683 N   0  0  0  0  0  0  0  0  0  0  0  0
   -2.0983   -0.0473    1.4952 C   0  0  0  0  0  0  0  0  0  0  0  0
   -2.4308   -0.8725    0.7011 C   0  0  0  0  0  0  0  0  0  0  0  0
   -1.6304   -1.1565   -0.4588 C   0  0  0  0  0  0  0  0  0  0  0  0
   -1.9454   -2.0403   -1.2405 O   0  0  0  0  0  0  0  0  0  0  0  0
   -0.4994   -0.3165   -0.5008 N   0  0  0  0  0  0  0  0  0  0  0  0
    0.6693   -0.5262   -1.7151 S   0  0  0  0  0  0  0  0  0  0  0  0
  1  2  2  0
  2  3  1  0
  3  4  1  0
  4  5  2  0
  4  6  1  0
  6  7  2  0
  7  8  1  0
  8  9  3  0
  9 10  1  0
 10 11  2  0
 10 12  1  0
 12 13  1  0
 13  2  1  0
 12  6  1  0
M  END
>  <Energy>  (1) 
50.26382696456794

>  <Real charge>  (1) 
0

>  <Mult>  (1) 
1

>  <SMILES>  (1) 
O=c1oc(=O)c2nc#cc(=O)n2s1

$$$$
