aryne_510 8
     RDKit          3D

 15 16  0  0  0  0  0  0  0  0999 V2000
    3.6332   -0.6054   -0.2890 O   0  0  0  0  0  0  0  0  0  0  0  0
    2.4564   -0.2630   -0.2464 C   0  0  0  0  0  0  0  0  0  0  0  0
    2.1120    1.0498   -0.0176 N   0  0  0  0  0  0  0  0  0  0  0  0
    0.8621    1.3550    0.0172 C   0  0  0  0  0  0  0  0  0  0  0  0
   -0.1947    0.4969   -0.1525 N   0  0  0  0  0  0  0  0  0  0  0  0
   -1.5524    0.9680   -0.0897 C   0  0  0  0  0  0  0  0  0  0  0  0
   -1.8731    2.1359    0.1136 O   0  0  0  0  0  0  0  0  0  0  0  0
   -2.5232   -0.0260   -0.2823 N   0  0  0  0  0  0  0  0  0  0  0  0
   -2.1860   -1.3030   -0.5048 C   0  0  0  0  0  0  0  0  0  0  0  0
   -1.0435   -1.6355   -0.5462 C   0  0  0  0  0  0  0  0  0  0  0  0
    0.0950   -0.9260   -0.4018 N   0  0  0  0  0  0  0  0  0  0  0  0
    1.4062   -1.3663   -0.4598 C   0  0  0  0  0  0  0  0  0  0  0  0
    1.7362   -2.5290   -0.6620 O   0  0  0  0  0  0  0  0  0  0  0  0
    0.5695    2.4026    0.1995 H   0  0  0  0  0  0  0  0  0  0  0  0
   -3.4978    0.2461   -0.2491 H   0  0  0  0  0  0  0  0  0  0  0  0
  1  2  2  0
  2  3  1  0
  3  4  2  0
  4  5  1  0
  5  6  1  0
  6  7  2  0
  6  8  1  0
  8  9  1  0
  9 10  3  0
 10 11  1  0
 11 12  1  0
 12 13  2  0
 12  2  1  0
 11  5  1  0
  4 14  1  0
  8 15  1  0
M  END
>  <Energy>  (1) 
100.63036280518075

>  <Real charge>  (1) 
0

>  <Mult>  (1) 
1

>  <SMILES>  (1) 
O=c1ncn2c(=O)[nH]c#cn2c1=O

$$$$
