aryne_20 31
     RDKit          3D

 15 16  0  0  0  0  0  0  0  0999 V2000
    2.7806    0.3013    0.8547 C   0  0  0  0  0  0  0  0  0  0  0  0
    1.6030    1.1219    1.0104 N   0  0  0  0  0  0  0  0  0  0  0  0
    0.4918    0.4764    0.4112 C   0  0  0  0  0  0  0  0  0  0  0  0
   -0.6756    1.1684    0.2820 C   0  0  0  0  0  0  0  0  0  0  0  0
   -1.8107    0.6291   -0.2923 N   0  0  0  0  0  0  0  0  0  0  0  0
   -1.8094   -0.6705   -0.7432 C   0  0  0  0  0  0  0  0  0  0  0  0
   -0.6920   -1.4143   -0.6566 C   0  0  0  0  0  0  0  0  0  0  0  0
    0.4803   -0.8981   -0.0978 N   0  0  0  0  0  0  0  0  0  0  0  0
    1.8734   -1.8974   -0.1743 S   0  0  0  0  0  0  0  0  0  0  0  0
    2.9780   -0.7994    0.4461 C   0  0  0  0  0  0  0  0  0  0  0  0
    1.6450    2.1111    0.7900 H   0  0  0  0  0  0  0  0  0  0  0  0
   -0.7959    2.1868    0.6328 H   0  0  0  0  0  0  0  0  0  0  0  0
   -2.6743    1.1587   -0.2899 H   0  0  0  0  0  0  0  0  0  0  0  0
   -2.7396   -1.0357   -1.1622 H   0  0  0  0  0  0  0  0  0  0  0  0
   -0.6547   -2.4383   -1.0109 H   0  0  0  0  0  0  0  0  0  0  0  0
  1  2  1  0
  2  3  1  0
  3  4  2  0
  4  5  1  0
  5  6  1  0
  6  7  2  0
  7  8  1  0
  8  9  1  0
  9 10  1  0
 10  1  3  0
  8  3  1  0
  2 11  1  0
  4 12  1  0
  5 13  1  0
  6 14  1  0
  7 15  1  0
M  END
>  <Energy>  (1) 
92.32322095938396

>  <Real charge>  (1) 
0

>  <Mult>  (1) 
1

>  <SMILES>  (1) 
c1[nH]c2c[nH]ccn-2sc#1

$$$$
