aryne_260 10
     RDKit          3D

 13 14  0  0  0  0  0  0  0  0999 V2000
   -0.7280    2.2714   -1.5133 O   0  0  0  0  0  0  0  0  0  0  0  0
   -0.7631    1.2683   -0.8101 C   0  0  0  0  0  0  0  0  0  0  0  0
   -1.9382    0.6393   -0.5901 O   0  0  0  0  0  0  0  0  0  0  0  0
   -1.9929   -0.5580   -0.0032 C   0  0  0  0  0  0  0  0  0  0  0  0
   -3.0138   -1.0276    0.4725 O   0  0  0  0  0  0  0  0  0  0  0  0
   -0.6991   -1.3510    0.0159 C   0  0  0  0  0  0  0  0  0  0  0  0
   -0.6872   -2.5613   -0.1349 O   0  0  0  0  0  0  0  0  0  0  0  0
    0.5110   -0.5574    0.2512 C   0  0  0  0  0  0  0  0  0  0  0  0
    1.6142   -1.2363    0.8187 O   0  0  0  0  0  0  0  0  0  0  0  0
    2.5873   -0.3435    0.9165 C   0  0  0  0  0  0  0  0  0  0  0  0
    2.8545    0.7968    0.6967 C   0  0  0  0  0  0  0  0  0  0  0  0
    1.8041    1.9148    0.0167 S   0  0  0  0  0  0  0  0  0  0  0  0
    0.4512    0.7444   -0.1367 C   0  0  0  0  0  0  0  0  0  0  0  0
  1  2  2  0
  2  3  1  0
  3  4  1  0
  4  5  2  0
  4  6  1  0
  6  7  2  0
  6  8  1  0
  8  9  1  0
  9 10  1  0
 10 11  3  0
 11 12  1  0
 12 13  1  0
 13  2  1  0
 13  8  2  0
M  END
>  <Energy>  (1) 
92.20805930879199

>  <Real charge>  (1) 
0

>  <Mult>  (1) 
1

>  <SMILES>  (1) 
O=c1oc(=O)c(=O)c2oc#csc1=2

$$$$
aryne_260 7
     RDKit          3D

 13 14  0  0  0  0  0  0  0  0999 V2000
    0.0648    2.8254    0.3508 O   0  0  0  0  0  0  0  0  0  0  0  0
   -0.2917    1.6617    0.1968 C   0  0  0  0  0  0  0  0  0  0  0  0
   -1.6052    1.3904    0.0966 O   0  0  0  0  0  0  0  0  0  0  0  0
   -2.1011    0.1687   -0.0717 C   0  0  0  0  0  0  0  0  0  0  0  0
   -3.3045   -0.0313   -0.1575 O   0  0  0  0  0  0  0  0  0  0  0  0
   -1.1420   -1.0038   -0.1590 C   0  0  0  0  0  0  0  0  0  0  0  0
   -1.5678   -2.1404   -0.3147 O   0  0  0  0  0  0  0  0  0  0  0  0
    0.2971   -0.7315   -0.0514 C   0  0  0  0  0  0  0  0  0  0  0  0
    1.1340   -1.8738   -0.1407 O   0  0  0  0  0  0  0  0  0  0  0  0
    2.3793   -1.4447   -0.0248 C   0  0  0  0  0  0  0  0  0  0  0  0
    3.0357   -0.4627    0.1244 C   0  0  0  0  0  0  0  0  0  0  0  0
    2.4104    1.0843    0.2719 S   0  0  0  0  0  0  0  0  0  0  0  0
    0.6909    0.5576    0.1198 C   0  0  0  0  0  0  0  0  0  0  0  0
  1  2  2  0
  2  3  1  0
  3  4  1  0
  4  5  2  0
  4  6  1  0
  6  7  2  0
  6  8  1  0
  8  9  1  0
  9 10  1  0
 10 11  3  0
 11 12  1  0
 12 13  1  0
 13  2  1  0
 13  8  2  0
M  END
>  <Energy>  (2) 
93.20259217912428

>  <Real charge>  (2) 
0

>  <Mult>  (2) 
1

>  <SMILES>  (2) 
O=c1oc(=O)c(=O)c2oc#csc1=2

$$$$
