aryne_423 6
     RDKit          3D

 12 13  0  0  0  0  0  0  0  0999 V2000
    0.8430    2.4855   -0.8148 O   0  0  0  0  0  0  0  0  0  0  0  0
    0.0745    1.6064   -0.4624 C   0  0  0  0  0  0  0  0  0  0  0  0
   -1.3248    1.9008   -0.3540 C   0  0  0  0  0  0  0  0  0  0  0  0
   -2.2459    1.2169   -0.0356 C   0  0  0  0  0  0  0  0  0  0  0  0
   -2.3393   -0.3887    0.4291 S   0  0  0  0  0  0  0  0  0  0  0  0
   -0.6063   -0.6815    0.2747 C   0  0  0  0  0  0  0  0  0  0  0  0
   -0.0874   -1.8864    0.5429 C   0  0  0  0  0  0  0  0  0  0  0  0
    1.6273   -1.9183    0.3176 S   0  0  0  0  0  0  0  0  0  0  0  0
    1.6530   -0.2059   -0.1680 C   0  0  0  0  0  0  0  0  0  0  0  0
    2.6925    0.3532   -0.4674 O   0  0  0  0  0  0  0  0  0  0  0  0
    0.3545    0.2772   -0.1265 N   0  0  0  0  0  0  0  0  0  0  0  0
   -0.6412   -2.7592    0.8643 H   0  0  0  0  0  0  0  0  0  0  0  0
  1  2  2  0
  2  3  1  0
  3  4  3  0
  4  5  1  0
  5  6  1  0
  6  7  2  0
  7  8  1  0
  8  9  1  0
  9 10  2  0
  9 11  1  0
 11  2  1  0
 11  6  1  0
  7 12  1  0
M  END
>  <Energy>  (1) 
8.60124106279081

>  <Real charge>  (1) 
0

>  <Mult>  (1) 
1

>  <SMILES>  (1) 
O=c1c#csc2csc(=O)n12

$$$$
