aryne_528 21
     RDKit          3D

 15 16  0  0  0  0  0  0  0  0999 V2000
   -3.3091    0.2346    1.5042 O   0  0  0  0  0  0  0  0  0  0  0  0
   -2.5422    0.2276    0.5630 C   0  0  0  0  0  0  0  0  0  0  0  0
   -2.4232   -0.9955   -0.6594 S   0  0  0  0  0  0  0  0  0  0  0  0
   -0.7473   -1.3988   -0.5243 C   0  0  0  0  0  0  0  0  0  0  0  0
    0.1657   -0.4783   -0.1843 C   0  0  0  0  0  0  0  0  0  0  0  0
    1.6623   -0.9110   -0.2361 C   0  0  0  0  0  0  0  0  0  0  0  0
    2.0215   -2.0675   -0.4146 O   0  0  0  0  0  0  0  0  0  0  0  0
    2.5537    0.1520   -0.0719 N   0  0  0  0  0  0  0  0  0  0  0  0
    2.1047    1.4034    0.1159 C   0  0  0  0  0  0  0  0  0  0  0  0
    0.9375    1.6435    0.1749 C   0  0  0  0  0  0  0  0  0  0  0  0
   -0.1744    0.8688    0.1100 N   0  0  0  0  0  0  0  0  0  0  0  0
   -1.4968    1.2966    0.2552 C   0  0  0  0  0  0  0  0  0  0  0  0
   -1.8473    2.4737    0.2541 O   0  0  0  0  0  0  0  0  0  0  0  0
   -0.4524   -2.4109   -0.7908 H   0  0  0  0  0  0  0  0  0  0  0  0
    3.5475   -0.0382   -0.0958 H   0  0  0  0  0  0  0  0  0  0  0  0
  1  2  2  0
  2  3  1  0
  3  4  1  0
  4  5  2  0
  5  6  1  0
  6  7  2  0
  6  8  1  0
  8  9  1  0
  9 10  3  0
 10 11  1  0
 11 12  1  0
 12 13  2  0
 12  2  1  0
 11  5  1  0
  4 14  1  0
  8 15  1  0
M  END
>  <Energy>  (1) 
134.45944182887905

>  <Real charge>  (1) 
0

>  <Mult>  (1) 
1

>  <SMILES>  (1) 
O=c1scc2c(=O)[nH]c#cn2c1=O

$$$$
