aryne_37 17
     RDKit          3D

 14 15  0  0  0  0  0  0  0  0999 V2000
   -3.3954    0.6919    0.0395 O   0  0  0  0  0  0  0  0  0  0  0  0
   -2.2395    0.2861    0.0190 C   0  0  0  0  0  0  0  0  0  0  0  0
   -1.1996    1.1604    0.0517 N   0  0  0  0  0  0  0  0  0  0  0  0
    0.1072    0.8026    0.0328 C   0  0  0  0  0  0  0  0  0  0  0  0
    1.1944    2.2081    0.0873 S   0  0  0  0  0  0  0  0  0  0  0  0
    2.6081    1.3075    0.0456 C   0  0  0  0  0  0  0  0  0  0  0  0
    2.8197    0.1365   -0.0034 C   0  0  0  0  0  0  0  0  0  0  0  0
    1.8825   -0.9490   -0.0452 C   0  0  0  0  0  0  0  0  0  0  0  0
    2.2835   -2.0976   -0.0939 O   0  0  0  0  0  0  0  0  0  0  0  0
    0.4401   -0.5056   -0.0223 C   0  0  0  0  0  0  0  0  0  0  0  0
   -0.6623   -1.4734   -0.0587 C   0  0  0  0  0  0  0  0  0  0  0  0
   -0.4483   -2.6793   -0.1091 O   0  0  0  0  0  0  0  0  0  0  0  0
   -1.9408   -1.0303   -0.0363 O   0  0  0  0  0  0  0  0  0  0  0  0
   -1.4494    2.1422    0.0930 H   0  0  0  0  0  0  0  0  0  0  0  0
  1  2  2  0
  2  3  1  0
  3  4  1  0
  4  5  1  0
  5  6  1  0
  6  7  3  0
  7  8  1  0
  8  9  2  0
  8 10  1  0
 10 11  1  0
 11 12  2  0
 11 13  1  0
 13  2  1  0
 10  4  2  0
  3 14  1  0
M  END
>  <Energy>  (1) 
-41.31788536888765

>  <Real charge>  (1) 
0

>  <Mult>  (1) 
1

>  <SMILES>  (1) 
O=c1[nH]c2sc#cc(=O)c2c(=O)o1

$$$$
