aryne_148 2
     RDKit          3D

 11 12  0  0  0  0  0  0  0  0999 V2000
   -1.4875    2.0755   -0.7069 O   0  0  0  0  0  0  0  0  0  0  0  0
   -1.2649    0.8908   -0.4375 C   0  0  0  0  0  0  0  0  0  0  0  0
   -2.3179   -0.0102   -0.4677 N   0  0  0  0  0  0  0  0  0  0  0  0
   -2.3111   -1.0960    0.1448 N   0  0  0  0  0  0  0  0  0  0  0  0
   -0.9589   -1.6310    0.9364 S   0  0  0  0  0  0  0  0  0  0  0  0
    0.3006   -0.9875    0.0709 N   0  0  0  0  0  0  0  0  0  0  0  0
    1.5650   -1.3927    0.7619 O   0  0  0  0  0  0  0  0  0  0  0  0
    2.4492   -0.4627    0.4631 C   0  0  0  0  0  0  0  0  0  0  0  0
    2.6070    0.6176   -0.0066 C   0  0  0  0  0  0  0  0  0  0  0  0
    1.3689    1.5437   -0.6319 S   0  0  0  0  0  0  0  0  0  0  0  0
    0.0496    0.4525   -0.1267 N   0  0  0  0  0  0  0  0  0  0  0  0
  1  2  2  0
  2  3  1  0
  3  4  2  0
  4  5  1  0
  5  6  1  0
  6  7  1  0
  7  8  1  0
  8  9  3  0
  9 10  1  0
 10 11  1  0
 11  2  1  0
 11  6  1  0
M  END
>  <Energy>  (1) 
99.34109921516006

>  <Real charge>  (1) 
0

>  <Mult>  (1) 
1

>  <SMILES>  (1) 
O=c1nnsn2oc#csn12

$$$$
