aryne_19 34
     RDKit          3D

 15 16  0  0  0  0  0  0  0  0999 V2000
    2.7380    0.7386    0.0354 C   0  0  0  0  0  0  0  0  0  0  0  0
    1.9528    1.9595    0.2280 N   0  0  0  0  0  0  0  0  0  0  0  0
    0.5789    1.6055    0.2035 C   0  0  0  0  0  0  0  0  0  0  0  0
    0.0510    0.3654   -0.0814 C   0  0  0  0  0  0  0  0  0  0  0  0
   -1.3229    0.1734   -0.0424 N   0  0  0  0  0  0  0  0  0  0  0  0
   -1.9105   -1.0525   -0.2061 C   0  0  0  0  0  0  0  0  0  0  0  0
   -1.2509   -2.2161   -0.2880 C   0  0  0  0  0  0  0  0  0  0  0  0
    0.4791   -2.3092   -0.1416 S   0  0  0  0  0  0  0  0  0  0  0  0
    0.9268   -0.7285   -0.4150 N   0  0  0  0  0  0  0  0  0  0  0  0
    2.3253   -0.3520   -0.2227 C   0  0  0  0  0  0  0  0  0  0  0  0
    2.1859    2.5584    1.0167 H   0  0  0  0  0  0  0  0  0  0  0  0
   -0.0527    2.4425    0.4823 H   0  0  0  0  0  0  0  0  0  0  0  0
   -1.9136    0.9826    0.0985 H   0  0  0  0  0  0  0  0  0  0  0  0
   -2.9945   -1.0206   -0.2589 H   0  0  0  0  0  0  0  0  0  0  0  0
   -1.7926   -3.1470   -0.4083 H   0  0  0  0  0  0  0  0  0  0  0  0
  1  2  1  0
  2  3  1  0
  3  4  2  0
  4  5  1  0
  5  6  1  0
  6  7  2  0
  7  8  1  0
  8  9  1  0
  9 10  1  0
 10  1  3  0
  9  4  1  0
  2 11  1  0
  3 12  1  0
  5 13  1  0
  6 14  1  0
  7 15  1  0
M  END
>  <Energy>  (1) 
102.85329422068546

>  <Real charge>  (1) 
0

>  <Mult>  (1) 
1

>  <SMILES>  (1) 
c1[nH]cc2[nH]ccsn-2c#1

$$$$
aryne_19 23
     RDKit          3D

 15 16  0  0  0  0  0  0  0  0999 V2000
   -2.0691    1.9314    0.1537 C   0  0  0  0  0  0  0  0  0  0  0  0
   -2.6804    0.6125    0.3274 N   0  0  0  0  0  0  0  0  0  0  0  0
   -1.6653   -0.3677    0.1761 C   0  0  0  0  0  0  0  0  0  0  0  0
   -0.3215   -0.1402   -0.0219 C   0  0  0  0  0  0  0  0  0  0  0  0
    0.5635   -1.2075   -0.0782 N   0  0  0  0  0  0  0  0  0  0  0  0
    1.9225   -1.0455   -0.1355 C   0  0  0  0  0  0  0  0  0  0  0  0
    2.5627    0.1300   -0.0683 C   0  0  0  0  0  0  0  0  0  0  0  0
    1.7191    1.6340    0.1567 S   0  0  0  0  0  0  0  0  0  0  0  0
    0.1567    1.2029   -0.2117 N   0  0  0  0  0  0  0  0  0  0  0  0
   -0.9163    2.1764   -0.0391 C   0  0  0  0  0  0  0  0  0  0  0  0
   -3.5143    0.3944   -0.2130 H   0  0  0  0  0  0  0  0  0  0  0  0
   -2.0676   -1.3713    0.2645 H   0  0  0  0  0  0  0  0  0  0  0  0
    0.1909   -2.1415    0.0337 H   0  0  0  0  0  0  0  0  0  0  0  0
    2.4742   -1.9756   -0.2328 H   0  0  0  0  0  0  0  0  0  0  0  0
    3.6450    0.1678   -0.1116 H   0  0  0  0  0  0  0  0  0  0  0  0
  1  2  1  0
  2  3  1  0
  3  4  2  0
  4  5  1  0
  5  6  1  0
  6  7  2  0
  7  8  1  0
  8  9  1  0
  9 10  1  0
 10  1  3  0
  9  4  1  0
  2 11  1  0
  3 12  1  0
  5 13  1  0
  6 14  1  0
  7 15  1  0
M  END
>  <Energy>  (2) 
103.25359007384245

>  <Real charge>  (2) 
0

>  <Mult>  (2) 
1

>  <SMILES>  (2) 
c1[nH]cc2[nH]ccsn-2c#1

$$$$
