aryne_35 9
     RDKit          3D

 12 13  0  0  0  0  0  0  0  0999 V2000
    3.1124   -0.6645   -0.1179 O   0  0  0  0  0  0  0  0  0  0  0  0
    1.9182   -0.5860    0.0917 C   0  0  0  0  0  0  0  0  0  0  0  0
    1.0652   -1.6258    0.2834 O   0  0  0  0  0  0  0  0  0  0  0  0
   -0.2590   -1.0831    0.5743 N   0  0  0  0  0  0  0  0  0  0  0  0
   -1.2516   -1.8003   -0.2882 O   0  0  0  0  0  0  0  0  0  0  0  0
   -2.1696   -0.8862   -0.5532 C   0  0  0  0  0  0  0  0  0  0  0  0
   -2.3315    0.2920   -0.4861 C   0  0  0  0  0  0  0  0  0  0  0  0
   -1.2625    1.1291   -0.0186 C   0  0  0  0  0  0  0  0  0  0  0  0
   -1.3778    2.3437   -0.0324 O   0  0  0  0  0  0  0  0  0  0  0  0
   -0.1741    0.3651    0.4394 N   0  0  0  0  0  0  0  0  0  0  0  0
    1.1143    0.7118    0.1438 C   0  0  0  0  0  0  0  0  0  0  0  0
    1.6161    1.8043   -0.0363 O   0  0  0  0  0  0  0  0  0  0  0  0
  1  2  2  0
  2  3  1  0
  3  4  1  0
  4  5  1  0
  5  6  1  0
  6  7  3  0
  7  8  1  0
  8  9  2  0
  8 10  1  0
 10 11  1  0
 11 12  2  0
 11  2  1  0
 10  4  1  0
M  END
>  <Energy>  (1) 
103.0025130983698

>  <Real charge>  (1) 
0

>  <Mult>  (1) 
1

>  <SMILES>  (1) 
O=c1on2oc#cc(=O)n2c1=O

$$$$
