aryne_211 8
     RDKit          3D

 13 14  0  0  0  0  0  0  0  0999 V2000
   -0.9548   -1.8866   -1.7065 O   0  0  0  0  0  0  0  0  0  0  0  0
   -0.3337   -1.4837   -0.7277 C   0  0  0  0  0  0  0  0  0  0  0  0
    0.3383   -2.3241    0.1280 N   0  0  0  0  0  0  0  0  0  0  0  0
    0.9776   -1.9360    1.1314 N   0  0  0  0  0  0  0  0  0  0  0  0
    1.0863   -0.6120    1.5023 C   0  0  0  0  0  0  0  0  0  0  0  0
    1.7284   -0.2847    2.5001 O   0  0  0  0  0  0  0  0  0  0  0  0
    0.4537    0.3459    0.7232 N   0  0  0  0  0  0  0  0  0  0  0  0
    0.4319    1.6851    0.9045 C   0  0  0  0  0  0  0  0  0  0  0  0
   -0.0509    2.6193    0.3421 C   0  0  0  0  0  0  0  0  0  0  0  0
   -0.9948    2.6124   -1.0490 S   0  0  0  0  0  0  0  0  0  0  0  0
   -0.9307    0.8339   -1.2378 C   0  0  0  0  0  0  0  0  0  0  0  0
   -0.2744   -0.0306   -0.4090 C   0  0  0  0  0  0  0  0  0  0  0  0
   -1.4770    0.4612   -2.1017 H   0  0  0  0  0  0  0  0  0  0  0  0
  1  2  2  0
  2  3  1  0
  3  4  2  0
  4  5  1  0
  5  6  2  0
  5  7  1  0
  7  8  1  0
  8  9  3  0
  9 10  1  0
 10 11  1  0
 11 12  2  0
 12  2  1  0
 12  7  1  0
 11 13  1  0
M  END
>  <Energy>  (1) 
112.53004944913535

>  <Real charge>  (1) 
0

>  <Mult>  (1) 
1

>  <SMILES>  (1) 
O=c1nnc(=O)n2c#cscc1-2

$$$$
