aryne_862 83
     RDKit          3D

 15 16  0  0  0  0  0  0  0  0999 V2000
    3.2059    0.0299    0.0896 O   0  0  0  0  0  0  0  0  0  0  0  0
    1.9846    0.0286   -0.0399 C   0  0  0  0  0  0  0  0  0  0  0  0
    1.2707    1.1848   -0.0347 N   0  0  0  0  0  0  0  0  0  0  0  0
   -0.0622    1.2847   -0.3124 C   0  0  0  0  0  0  0  0  0  0  0  0
   -0.6298    2.3797   -0.3096 O   0  0  0  0  0  0  0  0  0  0  0  0
   -0.7245    0.0878   -0.5852 N   0  0  0  0  0  0  0  0  0  0  0  0
   -2.2017    0.1735   -0.5337 N   0  0  0  0  0  0  0  0  0  0  0  0
   -2.6500   -0.7417    0.5102 C   0  0  0  0  0  0  0  0  0  0  0  0
   -1.9078   -1.4977    1.0568 C   0  0  0  0  0  0  0  0  0  0  0  0
   -0.6223   -1.8252    1.0382 O   0  0  0  0  0  0  0  0  0  0  0  0
   -0.0963   -1.1816   -0.2147 N   0  0  0  0  0  0  0  0  0  0  0  0
    1.2856   -1.1292   -0.2065 N   0  0  0  0  0  0  0  0  0  0  0  0
    1.7800    2.0424    0.1028 H   0  0  0  0  0  0  0  0  0  0  0  0
   -2.4416    1.1597   -0.3782 H   0  0  0  0  0  0  0  0  0  0  0  0
    1.8093   -1.9956   -0.1827 H   0  0  0  0  0  0  0  0  0  0  0  0
  1  2  2  0
  2  3  1  0
  3  4  1  0
  4  5  2  0
  4  6  1  0
  6  7  1  0
  7  8  1  0
  8  9  3  0
  9 10  1  0
 10 11  1  0
 11 12  1  0
 12  2  1  0
 11  6  1  0
  3 13  1  0
  7 14  1  0
 12 15  1  0
M  END
>  <Energy>  (1) 
1.0334878770637737

>  <Real charge>  (1) 
0

>  <Mult>  (1) 
1

>  <SMILES>  (1) 
O=c1[nH]c(=O)n2[nH]c#con2[nH]1

$$$$
aryne_862 80
     RDKit          3D

 15 16  0  0  0  0  0  0  0  0999 V2000
   -2.5053   -1.9892   -0.3159 O   0  0  0  0  0  0  0  0  0  0  0  0
   -1.5669   -1.1984   -0.3612 C   0  0  0  0  0  0  0  0  0  0  0  0
   -1.7590    0.1191   -0.6425 N   0  0  0  0  0  0  0  0  0  0  0  0
   -0.8596    1.0899   -0.2956 C   0  0  0  0  0  0  0  0  0  0  0  0
   -1.2186    2.2595   -0.1480 O   0  0  0  0  0  0  0  0  0  0  0  0
    0.4384    0.6470   -0.0678 N   0  0  0  0  0  0  0  0  0  0  0  0
    1.4564    1.6558    0.1832 N   0  0  0  0  0  0  0  0  0  0  0  0
    2.6166    0.9892    0.7419 C   0  0  0  0  0  0  0  0  0  0  0  0
    2.6994   -0.1982    0.7767 C   0  0  0  0  0  0  0  0  0  0  0  0
    1.9954   -1.2711    0.4508 O   0  0  0  0  0  0  0  0  0  0  0  0
    0.7989   -0.7514   -0.3065 N   0  0  0  0  0  0  0  0  0  0  0  0
   -0.2882   -1.5875   -0.0786 N   0  0  0  0  0  0  0  0  0  0  0  0
   -2.7175    0.4159   -0.7313 H   0  0  0  0  0  0  0  0  0  0  0  0
    1.0368    2.3987    0.7477 H   0  0  0  0  0  0  0  0  0  0  0  0
   -0.1269   -2.5794    0.0472 H   0  0  0  0  0  0  0  0  0  0  0  0
  1  2  2  0
  2  3  1  0
  3  4  1  0
  4  5  2  0
  4  6  1  0
  6  7  1  0
  7  8  1  0
  8  9  3  0
  9 10  1  0
 10 11  1  0
 11 12  1  0
 12  2  1  0
 11  6  1  0
  3 13  1  0
  7 14  1  0
 12 15  1  0
M  END
>  <Energy>  (2) 
1.1048914101076033

>  <Real charge>  (2) 
0

>  <Mult>  (2) 
1

>  <SMILES>  (2) 
O=c1[nH]c(=O)n2[nH]c#con2[nH]1

$$$$
aryne_862 9
     RDKit          3D

 15 16  0  0  0  0  0  0  0  0999 V2000
   -3.1425   -0.7492   -0.2435 O   0  0  0  0  0  0  0  0  0  0  0  0
   -1.9728   -0.3783   -0.2145 C   0  0  0  0  0  0  0  0  0  0  0  0
   -1.6330    0.9087    0.0905 N   0  0  0  0  0  0  0  0  0  0  0  0
   -0.3804    1.2855    0.5115 C   0  0  0  0  0  0  0  0  0  0  0  0
   -0.1974    2.3842    1.0362 O   0  0  0  0  0  0  0  0  0  0  0  0
    0.6177    0.3278    0.3138 N   0  0  0  0  0  0  0  0  0  0  0  0
    1.9853    0.7198    0.6365 N   0  0  0  0  0  0  0  0  0  0  0  0
    2.8803   -0.3369    0.2065 C   0  0  0  0  0  0  0  0  0  0  0  0
    2.4858   -1.3276   -0.3232 C   0  0  0  0  0  0  0  0  0  0  0  0
    1.3430   -1.8658   -0.7190 O   0  0  0  0  0  0  0  0  0  0  0  0
    0.3466   -0.7438   -0.6522 N   0  0  0  0  0  0  0  0  0  0  0  0
   -0.9339   -1.2393   -0.4503 N   0  0  0  0  0  0  0  0  0  0  0  0
   -2.3882    1.5328    0.3241 H   0  0  0  0  0  0  0  0  0  0  0  0
    2.1553    1.6527    0.2570 H   0  0  0  0  0  0  0  0  0  0  0  0
   -1.1657   -2.1705   -0.7733 H   0  0  0  0  0  0  0  0  0  0  0  0
  1  2  2  0
  2  3  1  0
  3  4  1  0
  4  5  2  0
  4  6  1  0
  6  7  1  0
  7  8  1  0
  8  9  3  0
  9 10  1  0
 10 11  1  0
 11 12  1  0
 12  2  1  0
 11  6  1  0
  3 13  1  0
  7 14  1  0
 12 15  1  0
M  END
>  <Energy>  (3) 
2.047197122775401

>  <Real charge>  (3) 
0

>  <Mult>  (3) 
1

>  <SMILES>  (3) 
O=c1[nH]c(=O)n2[nH]c#con2[nH]1

$$$$
