aryne_34 10
     RDKit          3D

 14 15  0  0  0  0  0  0  0  0999 V2000
   -2.9011   -1.1684    0.1677 O   0  0  0  0  0  0  0  0  0  0  0  0
   -1.8828   -0.5053    0.2421 C   0  0  0  0  0  0  0  0  0  0  0  0
   -1.7962    0.8186    0.9159 C   0  0  0  0  0  0  0  0  0  0  0  0
   -0.5284    1.2312    0.7910 C   0  0  0  0  0  0  0  0  0  0  0  0
    0.2330    0.3304    0.1111 N   0  0  0  0  0  0  0  0  0  0  0  0
    1.6114    0.3811   -0.2342 C   0  0  0  0  0  0  0  0  0  0  0  0
    2.3755    1.3001    0.0434 O   0  0  0  0  0  0  0  0  0  0  0  0
    2.0339   -0.7618   -0.9501 N   0  0  0  0  0  0  0  0  0  0  0  0
    1.1699   -1.7546   -1.2397 C   0  0  0  0  0  0  0  0  0  0  0  0
    0.0198   -1.7362   -0.9196 C   0  0  0  0  0  0  0  0  0  0  0  0
   -0.6156   -0.7691   -0.2388 N   0  0  0  0  0  0  0  0  0  0  0  0
   -2.6282    1.3010    1.3945 H   0  0  0  0  0  0  0  0  0  0  0  0
   -0.0916    2.1501    1.1569 H   0  0  0  0  0  0  0  0  0  0  0  0
    3.0003   -0.8172   -1.2401 H   0  0  0  0  0  0  0  0  0  0  0  0
  1  2  2  0
  2  3  1  0
  3  4  2  0
  4  5  1  0
  5  6  1  0
  6  7  2  0
  6  8  1  0
  8  9  1  0
  9 10  3  0
 10 11  1  0
 11  2  1  0
 11  5  1  0
  3 12  1  0
  4 13  1  0
  8 14  1  0
M  END
>  <Energy>  (1) 
60.960667745904466

>  <Real charge>  (1) 
0

>  <Mult>  (1) 
1

>  <SMILES>  (1) 
O=c1ccn2c(=O)[nH]c#cn12

$$$$
