aryne_30 4
     RDKit          3D

 12 13  0  0  0  0  0  0  0  0999 V2000
    2.1516    0.6816   -1.4624 O   0  0  0  0  0  0  0  0  0  0  0  0
    1.6491    0.2850   -0.4169 C   0  0  0  0  0  0  0  0  0  0  0  0
    2.7563   -0.0888    0.9786 S   0  0  0  0  0  0  0  0  0  0  0  0
    1.5877   -0.5644    2.0855 C   0  0  0  0  0  0  0  0  0  0  0  0
    0.4011   -0.6504    2.0324 C   0  0  0  0  0  0  0  0  0  0  0  0
   -0.4267   -0.3362    0.8862 N   0  0  0  0  0  0  0  0  0  0  0  0
   -1.7584   -0.4183    0.7840 N   0  0  0  0  0  0  0  0  0  0  0  0
   -1.9995   -0.0175   -0.4669 C   0  0  0  0  0  0  0  0  0  0  0  0
   -0.8209    0.3198   -1.1612 C   0  0  0  0  0  0  0  0  0  0  0  0
    0.2048    0.1048   -0.2576 C   0  0  0  0  0  0  0  0  0  0  0  0
   -3.0228    0.0126   -0.8220 H   0  0  0  0  0  0  0  0  0  0  0  0
   -0.7224    0.6719   -2.1797 H   0  0  0  0  0  0  0  0  0  0  0  0
  1  2  2  0
  2  3  1  0
  3  4  1  0
  4  5  3  0
  5  6  1  0
  6  7  1  0
  7  8  2  0
  8  9  1  0
  9 10  2  0
 10  2  1  0
 10  6  1  0
  8 11  1  0
  9 12  1  0
M  END
>  <Energy>  (1) 
33.88359213179976

>  <Real charge>  (1) 
0

>  <Mult>  (1) 
1

>  <SMILES>  (1) 
O=c1sc#cn2nccc12

$$$$
