aryne_1711 16
     RDKit          3D

 16 17  0  0  0  0  0  0  0  0999 V2000
    2.7462   -0.6823   -0.2135 C   0  0  0  0  0  0  0  0  0  0  0  0
    1.5828   -1.4649    0.0312 C   0  0  0  0  0  0  0  0  0  0  0  0
    0.4234   -0.7476    0.0596 C   0  0  0  0  0  0  0  0  0  0  0  0
   -0.8547   -1.3968    0.2981 C   0  0  0  0  0  0  0  0  0  0  0  0
   -1.9851   -0.6770    0.3228 C   0  0  0  0  0  0  0  0  0  0  0  0
   -1.9120    0.7850    0.1041 C   0  0  0  0  0  0  0  0  0  0  0  0
   -0.8310    1.4459   -0.1138 N   0  0  0  0  0  4  0  0  0  0  0  0
    0.4776    0.7554   -0.1629 C   0  0  0  0  0  0  0  0  0  0  0  0
    1.6652    1.3801   -0.3877 C   0  0  0  0  0  0  0  0  0  0  0  0
    2.7832    0.5004   -0.3880 C   0  0  0  0  0  0  0  0  0  0  0  0
    1.6517   -2.5370    0.1777 H   0  0  0  0  0  0  0  0  0  0  0  0
   -0.8832   -2.4734    0.4563 H   0  0  0  0  0  0  0  0  0  0  0  0
   -2.9567   -1.1280    0.4980 H   0  0  0  0  0  0  0  0  0  0  0  0
   -2.8617    1.3425    0.1316 H   0  0  0  0  0  0  0  0  0  0  0  0
   -0.8401    2.4561   -0.2582 H   0  0  0  0  0  0  0  0  0  0  0  0
    1.7947    2.4416   -0.5552 H   0  0  0  0  0  0  0  0  0  0  0  0
  1  2  1  0
  2  3  2  0
  3  4  1  0
  4  5  2  0
  5  6  1  0
  6  7  2  0
  7  8  1  0
  8  9  2  0
  9 10  1  0
 10  1  3  0
  8  3  1  0
  2 11  1  0
  4 12  1  0
  5 13  1  0
  6 14  1  0
  7 15  1  0
  9 16  1  0
M  CHG  1   7   1
M  END
>  <Energy>  (1) 
97.51094911167682

>  <Real charge>  (1) 
1

>  <Mult>  (1) 
1

>  <SMILES>  (1) 
c1cc2ccc[nH+]c2cc#1

$$$$
