aryne_33 21
     RDKit          3D

 14 15  0  0  0  0  0  0  0  0999 V2000
   -1.2401    2.0780    1.4830 O   0  0  0  0  0  0  0  0  0  0  0  0
   -0.7368    1.2942    0.6813 C   0  0  0  0  0  0  0  0  0  0  0  0
   -0.6663    1.6165   -0.6669 N   0  0  0  0  0  0  0  0  0  0  0  0
   -0.1212    0.8006   -1.6300 C   0  0  0  0  0  0  0  0  0  0  0  0
    0.3872   -0.3912   -1.2956 C   0  0  0  0  0  0  0  0  0  0  0  0
    0.3555   -0.7802    0.0082 N   0  0  0  0  0  0  0  0  0  0  0  0
    0.8032   -1.9428    0.6256 C   0  0  0  0  0  0  0  0  0  0  0  0
    1.3465   -2.9343    0.1755 O   0  0  0  0  0  0  0  0  0  0  0  0
    0.4768   -1.7409    2.0215 C   0  0  0  0  0  0  0  0  0  0  0  0
   -0.0476   -0.6713    2.1345 C   0  0  0  0  0  0  0  0  0  0  0  0
   -0.2076    0.0586    1.0145 N   0  0  0  0  0  0  0  0  0  0  0  0
   -1.0520    2.5194   -0.9166 H   0  0  0  0  0  0  0  0  0  0  0  0
   -0.1273    1.1704   -2.6500 H   0  0  0  0  0  0  0  0  0  0  0  0
    0.8296   -1.0770   -2.0101 H   0  0  0  0  0  0  0  0  0  0  0  0
  1  2  2  0
  2  3  1  0
  3  4  1  0
  4  5  2  0
  5  6  1  0
  6  7  1  0
  7  8  2  0
  7  9  1  0
  9 10  3  0
 10 11  1  0
 11  2  1  0
 11  6  1  0
  3 12  1  0
  4 13  1  0
  5 14  1  0
M  END
>  <Energy>  (1) 
95.08646987691593

>  <Real charge>  (1) 
0

>  <Mult>  (1) 
1

>  <SMILES>  (1) 
O=c1[nH]ccn2c(=O)c#cn12

$$$$
