aryne_432 4
     RDKit          3D

 11 12  0  0  0  0  0  0  0  0999 V2000
   -0.9655    2.3527    0.2271 O   0  0  0  0  0  0  0  0  0  0  0  0
   -0.5763    1.2006    0.2043 C   0  0  0  0  0  0  0  0  0  0  0  0
   -1.0375    0.1379    1.0506 N   0  0  0  0  0  0  0  0  0  0  0  0
   -0.3637   -1.0353    0.7339 C   0  0  0  0  0  0  0  0  0  0  0  0
    0.4808   -0.7467   -0.2564 C   0  0  0  0  0  0  0  0  0  0  0  0
    1.4500   -1.3395   -1.0814 C   0  0  0  0  0  0  0  0  0  0  0  0
    1.7176   -0.3470   -1.6993 C   0  0  0  0  0  0  0  0  0  0  0  0
    1.2331    0.8966   -1.6065 O   0  0  0  0  0  0  0  0  0  0  0  0
    0.3571    0.5844   -0.5748 N   0  0  0  0  0  0  0  0  0  0  0  0
   -1.7467    0.2630    1.7583 H   0  0  0  0  0  0  0  0  0  0  0  0
   -0.5489   -1.9668    1.2441 H   0  0  0  0  0  0  0  0  0  0  0  0
  1  2  2  0
  2  3  1  0
  3  4  1  0
  4  5  2  0
  5  6  1  0
  6  7  3  0
  7  8  1  0
  8  9  1  0
  9  2  1  0
  9  5  1  0
  3 10  1  0
  4 11  1  0
M  END
>  <Energy>  (1) 
117.92858116094219

>  <Real charge>  (1) 
0

>  <Mult>  (1) 
1

>  <SMILES>  (1) 
O=c1[nH]cc2c#con12

$$$$
