aryne_221 6
     RDKit          3D

 12 13  0  0  0  0  0  0  0  0999 V2000
    2.9897   -0.1235    0.6085 O   0  0  0  0  0  0  0  0  0  0  0  0
    1.8432    0.2280    0.3838 C   0  0  0  0  0  0  0  0  0  0  0  0
    1.4374    1.5330    0.3377 O   0  0  0  0  0  0  0  0  0  0  0  0
    0.0934    1.5645    0.0635 C   0  0  0  0  0  0  0  0  0  0  0  0
   -0.5383    2.6022   -0.0364 O   0  0  0  0  0  0  0  0  0  0  0  0
   -0.3517    0.2697   -0.0644 N   0  0  0  0  0  0  0  0  0  0  0  0
   -1.6569   -0.2325   -0.3458 C   0  0  0  0  0  0  0  0  0  0  0  0
   -2.6402    0.4791   -0.5269 O   0  0  0  0  0  0  0  0  0  0  0  0
   -1.7889   -1.6393   -0.4127 O   0  0  0  0  0  0  0  0  0  0  0  0
   -0.6283   -2.2389   -0.1921 C   0  0  0  0  0  0  0  0  0  0  0  0
    0.4793   -1.8718    0.0450 C   0  0  0  0  0  0  0  0  0  0  0  0
    0.7615   -0.5704    0.1397 N   0  0  0  0  0  0  0  0  0  0  0  0
  1  2  2  0
  2  3  1  0
  3  4  1  0
  4  5  2  0
  4  6  1  0
  6  7  1  0
  7  8  2  0
  7  9  1  0
  9 10  1  0
 10 11  3  0
 11 12  1  0
 12  2  1  0
 12  6  1  0
M  END
>  <Energy>  (1) 
10.272320595476888

>  <Real charge>  (1) 
0

>  <Mult>  (1) 
1

>  <SMILES>  (1) 
O=c1oc(=O)n2c(=O)oc#cn12

$$$$
