aryne_38 1
     RDKit          3D

  9 10  0  0  0  0  0  0  0  0999 V2000
   -1.5364   -0.1860    1.7203 C   0  0  0  0  0  0  0  0  0  0  0  0
   -0.7344   -1.2252    1.5686 O   0  0  0  0  0  0  0  0  0  0  0  0
    0.1632   -0.8018    0.5021 N   0  0  0  0  0  0  0  0  0  0  0  0
    1.5095   -0.9366    0.7464 N   0  0  0  0  0  0  0  0  0  0  0  0
    2.2123   -0.1914    0.0190 N   0  0  0  0  0  0  0  0  0  0  0  0
    1.2769    0.8260   -0.9269 S   0  0  0  0  0  0  0  0  0  0  0  0
   -0.2039    0.2725   -0.4514 N   0  0  0  0  0  0  0  0  0  0  0  0
   -1.0345    1.3948    0.1093 O   0  0  0  0  0  0  0  0  0  0  0  0
   -1.6526    0.8477    1.1422 C   0  0  0  0  0  0  0  0  0  0  0  0
  1  2  1  0
  2  3  1  0
  3  4  1  0
  4  5  2  0
  5  6  1  0
  6  7  1  0
  7  8  1  0
  8  9  1  0
  9  1  3  0
  7  3  1  0
M  END
>  <Energy>  (1) 
73.62406598980118

>  <Real charge>  (1) 
0

>  <Mult>  (1) 
1

>  <SMILES>  (1) 
c1on2nnsn2oc#1

$$$$
