aryne_27 1
     RDKit          3D

 13 14  0  0  0  0  0  0  0  0999 V2000
    0.2096    3.0427    0.8223 O   0  0  0  0  0  0  0  0  0  0  0  0
    0.6230    1.9613    0.4565 C   0  0  0  0  0  0  0  0  0  0  0  0
    1.4922    1.6414   -1.0124 S   0  0  0  0  0  0  0  0  0  0  0  0
    0.4860    0.4148   -1.7010 C   0  0  0  0  0  0  0  0  0  0  0  0
   -0.1827   -0.4392   -0.9198 C   0  0  0  0  0  0  0  0  0  0  0  0
   -0.9142   -1.5366   -1.4120 C   0  0  0  0  0  0  0  0  0  0  0  0
   -1.3174   -2.3237   -0.6149 C   0  0  0  0  0  0  0  0  0  0  0  0
   -1.2673   -2.4538    0.7116 N   0  0  0  0  0  0  0  0  0  0  0  0
   -0.6607   -1.4749    1.2670 N   0  0  0  0  0  0  0  0  0  0  0  0
   -0.1339   -0.4004    0.4803 N   0  0  0  0  0  0  0  0  0  0  0  0
    0.4517    0.6405    1.2026 C   0  0  0  0  0  0  0  0  0  0  0  0
    0.7455    0.6071    2.3943 O   0  0  0  0  0  0  0  0  0  0  0  0
    0.4684    0.3207   -2.7830 H   0  0  0  0  0  0  0  0  0  0  0  0
  1  2  2  0
  2  3  1  0
  3  4  1  0
  4  5  2  0
  5  6  1  0
  6  7  3  0
  7  8  1  0
  8  9  2  0
  9 10  1  0
 10 11  1  0
 11 12  2  0
 11  2  1  0
 10  5  1  0
  4 13  1  0
M  END
>  <Energy>  (1) 
142.89405290378699

>  <Real charge>  (1) 
0

>  <Mult>  (1) 
1

>  <SMILES>  (1) 
O=c1scc2c#cnnn2c1=O

$$$$
