aryne_391 4
     RDKit          3D

 14 15  0  0  0  0  0  0  0  0999 V2000
    3.1681   -0.7515    1.0469 O   0  0  0  0  0  0  0  0  0  0  0  0
    2.0498   -0.4215    0.6809 C   0  0  0  0  0  0  0  0  0  0  0  0
    1.7179    1.0449    0.6474 C   0  0  0  0  0  0  0  0  0  0  0  0
    0.5881    1.5595    0.2876 N   0  0  0  0  0  0  0  0  0  0  0  0
   -0.3839    0.6921   -0.0938 N   0  0  0  0  0  0  0  0  0  0  0  0
   -1.6499    1.2116   -0.5001 C   0  0  0  0  0  0  0  0  0  0  0  0
   -2.0055    2.3786   -0.5582 O   0  0  0  0  0  0  0  0  0  0  0  0
   -2.5505    0.1514   -0.8677 C   0  0  0  0  0  0  0  0  0  0  0  0
   -2.3312   -1.0216   -0.8568 C   0  0  0  0  0  0  0  0  0  0  0  0
   -1.1054   -1.6648   -0.4711 C   0  0  0  0  0  0  0  0  0  0  0  0
   -0.9964   -2.8805   -0.5004 O   0  0  0  0  0  0  0  0  0  0  0  0
   -0.1377   -0.7204   -0.0869 N   0  0  0  0  0  0  0  0  0  0  0  0
    1.0941   -1.2795    0.3055 O   0  0  0  0  0  0  0  0  0  0  0  0
    2.5426    1.7016    0.9667 H   0  0  0  0  0  0  0  0  0  0  0  0
  1  2  2  0
  2  3  1  0
  3  4  2  0
  4  5  1  0
  5  6  1  0
  6  7  2  0
  6  8  1  0
  8  9  3  0
  9 10  1  0
 10 11  2  0
 10 12  1  0
 12 13  1  0
 13  2  1  0
 12  5  1  0
  3 14  1  0
M  END
>  <Energy>  (1) 
158.8834121350143

>  <Real charge>  (1) 
0

>  <Mult>  (1) 
1

>  <SMILES>  (1) 
O=c1cnn2c(=O)c#cc(=O)n2o1

$$$$
