aryne_1713 1
     RDKit          3D

 16 17  0  0  0  0  0  0  0  0999 V2000
   -2.4141   -0.7002    0.9954 C   0  0  0  0  0  0  0  0  0  0  0  0
   -2.6919    0.5369    0.3435 C   0  0  0  0  0  0  0  0  0  0  0  0
   -1.6213    1.1197   -0.2563 C   0  0  0  0  0  0  0  0  0  0  0  0
   -0.2747    0.4471   -0.1931 C   0  0  0  0  0  0  0  0  0  0  0  0
    0.8688    0.9747   -0.7786 C   0  0  0  0  0  0  0  0  0  0  0  0
    2.0730    0.2734   -0.6640 C   0  0  0  0  0  0  0  0  0  0  0  0
    2.1175   -0.9385    0.0300 C   0  0  0  0  0  0  0  0  0  0  0  0
    1.0013   -1.4331    0.5896 N   0  0  0  0  0  4  0  0  0  0  0  0
   -0.1635   -0.7902    0.4994 C   0  0  0  0  0  0  0  0  0  0  0  0
   -1.3690   -1.2777    1.0767 C   0  0  0  0  0  0  0  0  0  0  0  0
   -3.6877    0.9672    0.3358 H   0  0  0  0  0  0  0  0  0  0  0  0
   -1.7111    2.0645   -0.7840 H   0  0  0  0  0  0  0  0  0  0  0  0
    0.8386    1.9189   -1.3204 H   0  0  0  0  0  0  0  0  0  0  0  0
    2.9787    0.6745   -1.1179 H   0  0  0  0  0  0  0  0  0  0  0  0
    3.0261   -1.5204    0.1472 H   0  0  0  0  0  0  0  0  0  0  0  0
    1.0292   -2.3167    1.0968 H   0  0  0  0  0  0  0  0  0  0  0  0
  1  2  1  0
  2  3  2  0
  3  4  1  0
  4  5  2  0
  5  6  1  0
  6  7  2  0
  7  8  1  0
  8  9  2  0
  9 10  1  0
 10  1  3  0
  9  4  1  0
  2 11  1  0
  3 12  1  0
  5 13  1  0
  6 14  1  0
  7 15  1  0
  8 16  1  0
M  CHG  1   8   1
M  END
>  <Energy>  (1) 
101.97592965589665

>  <Real charge>  (1) 
1

>  <Mult>  (1) 
1

>  <SMILES>  (1) 
c1ccc2ccc[nH+]c2c#1

$$$$
