aryne_1714 22
     RDKit          3D

 16 17  0  0  0  0  0  0  0  0999 V2000
   -2.8412   -0.0951    0.2566 C   0  0  0  0  0  0  0  0  0  0  0  0
   -1.9389    0.9979    0.1690 C   0  0  0  0  0  0  0  0  0  0  0  0
   -0.6326    0.6451    0.0533 C   0  0  0  0  0  0  0  0  0  0  0  0
    0.4525    1.5932   -0.0500 C   0  0  0  0  0  0  0  0  0  0  0  0
    1.7198    1.1714   -0.1618 C   0  0  0  0  0  0  0  0  0  0  0  0
    2.0654   -0.2320   -0.1848 C   0  0  0  0  0  0  0  0  0  0  0  0
    1.1582   -1.2161   -0.0974 C   0  0  0  0  0  0  0  0  0  0  0  0
   -0.2823   -0.8721    0.0305 C   0  0  0  0  0  0  0  0  0  0  0  0
   -1.1970   -1.7928    0.1182 N   0  0  0  0  0  4  0  0  0  0  0  0
   -2.5430   -1.2516    0.2364 C   0  0  0  0  0  0  0  0  0  0  0  0
   -2.2894    2.0247    0.1946 H   0  0  0  0  0  0  0  0  0  0  0  0
    0.2332    2.6584   -0.0364 H   0  0  0  0  0  0  0  0  0  0  0  0
    2.5339    1.8904   -0.2393 H   0  0  0  0  0  0  0  0  0  0  0  0
    3.1243   -0.4698   -0.2789 H   0  0  0  0  0  0  0  0  0  0  0  0
    1.4713   -2.2547   -0.1196 H   0  0  0  0  0  0  0  0  0  0  0  0
   -1.0342   -2.7969    0.1094 H   0  0  0  0  0  0  0  0  0  0  0  0
  1  2  1  0
  2  3  2  0
  3  4  1  0
  4  5  2  0
  5  6  1  0
  6  7  2  0
  7  8  1  0
  8  9  2  0
  9 10  1  0
 10  1  3  0
  8  3  1  0
  2 11  1  0
  4 12  1  0
  5 13  1  0
  6 14  1  0
  7 15  1  0
  9 16  1  0
M  CHG  1   9   1
M  END
>  <Energy>  (1) 
97.17558672095757

>  <Real charge>  (1) 
1

>  <Mult>  (1) 
1

>  <SMILES>  (1) 
c1cc2ccccc2[nH+]c#1

$$$$
