aryne_471 23
     RDKit          3D

 13 14  0  0  0  0  0  0  0  0999 V2000
   -1.2076   -1.7771   -1.2981 O   0  0  0  0  0  0  0  0  0  0  0  0
   -1.3442   -0.8162   -0.5346 C   0  0  0  0  0  0  0  0  0  0  0  0
   -2.5996   -0.2024   -0.3777 O   0  0  0  0  0  0  0  0  0  0  0  0
   -2.5336    0.8139    0.4643 C   0  0  0  0  0  0  0  0  0  0  0  0
   -1.6795    1.3347    1.1078 C   0  0  0  0  0  0  0  0  0  0  0  0
   -0.3126    0.8450    1.0808 N   0  0  0  0  0  0  0  0  0  0  0  0
    0.8436    2.0172    0.7598 S   0  0  0  0  0  0  0  0  0  0  0  0
    2.1481    1.2453    0.0467 N   0  0  0  0  0  0  0  0  0  0  0  0
    2.0352   -0.0172   -0.2022 C   0  0  0  0  0  0  0  0  0  0  0  0
    1.0162   -0.9120    0.0256 N   0  0  0  0  0  0  0  0  0  0  0  0
   -0.2262   -0.3057    0.2159 N   0  0  0  0  0  0  0  0  0  0  0  0
    2.8971   -0.5179   -0.6760 H   0  0  0  0  0  0  0  0  0  0  0  0
    0.9632   -1.7076   -0.6124 H   0  0  0  0  0  0  0  0  0  0  0  0
  1  2  2  0
  2  3  1  0
  3  4  1  0
  4  5  3  0
  5  6  1  0
  6  7  1  0
  7  8  1  0
  8  9  2  0
  9 10  1  0
 10 11  1  0
 11  2  1  0
 11  6  1  0
  9 12  1  0
 10 13  1  0
M  END
>  <Energy>  (1) 
86.73818592032832

>  <Real charge>  (1) 
0

>  <Mult>  (1) 
1

>  <SMILES>  (1) 
O=c1oc#cn2snc[nH]n12

$$$$
