aryne_21 10
     RDKit          3D

 13 14  0  0  0  0  0  0  0  0999 V2000
    2.3379   -0.0044   -1.8739 O   0  0  0  0  0  0  0  0  0  0  0  0
    1.8591    0.1549   -0.7620 C   0  0  0  0  0  0  0  0  0  0  0  0
    2.6662    0.5377    0.3565 C   0  0  0  0  0  0  0  0  0  0  0  0
    2.3203    0.7228    1.4813 C   0  0  0  0  0  0  0  0  0  0  0  0
    0.8381    0.6370    2.2624 S   0  0  0  0  0  0  0  0  0  0  0  0
   -0.0833    0.1628    0.8140 C   0  0  0  0  0  0  0  0  0  0  0  0
   -1.5487   -0.0471    1.0114 C   0  0  0  0  0  0  0  0  0  0  0  0
   -2.0700    0.1020    2.1097 O   0  0  0  0  0  0  0  0  0  0  0  0
   -2.2829   -0.4123   -0.0843 N   0  0  0  0  0  0  0  0  0  0  0  0
   -1.7235   -0.5645   -1.2270 C   0  0  0  0  0  0  0  0  0  0  0  0
   -0.4161   -0.4028   -1.5209 O   0  0  0  0  0  0  0  0  0  0  0  0
    0.3892   -0.0287   -0.4404 C   0  0  0  0  0  0  0  0  0  0  0  0
   -2.2862   -0.8574   -2.1267 H   0  0  0  0  0  0  0  0  0  0  0  0
  1  2  2  0
  2  3  1  0
  3  4  3  0
  4  5  1  0
  5  6  1  0
  6  7  1  0
  7  8  2  0
  7  9  1  0
  9 10  2  0
 10 11  1  0
 11 12  1  0
 12  2  1  0
 12  6  2  0
 10 13  1  0
M  END
>  <Energy>  (1) 
44.03871906655507

>  <Real charge>  (1) 
0

>  <Mult>  (1) 
1

>  <SMILES>  (1) 
O=c1c#csc2c(=O)ncoc12

$$$$
