aryne_16 13
     RDKit          3D

 15 16  0  0  0  0  0  0  0  0999 V2000
   -2.1554   -2.5439    0.8995 O   0  0  0  0  0  0  0  0  0  0  0  0
   -1.5160   -1.5480    0.5837 C   0  0  0  0  0  0  0  0  0  0  0  0
   -2.0969   -0.3196    0.4375 N   0  0  0  0  0  0  0  0  0  0  0  0
   -1.4545    0.8424    0.0874 C   0  0  0  0  0  0  0  0  0  0  0  0
   -2.0723    1.8968   -0.0169 O   0  0  0  0  0  0  0  0  0  0  0  0
    0.0139    0.7263   -0.1499 C   0  0  0  0  0  0  0  0  0  0  0  0
    0.9023    2.1942   -0.6058 S   0  0  0  0  0  0  0  0  0  0  0  0
    2.5937    1.6346   -0.7928 C   0  0  0  0  0  0  0  0  0  0  0  0
    3.5276    2.3545   -1.1049 O   0  0  0  0  0  0  0  0  0  0  0  0
    2.7373    0.2317   -0.5335 C   0  0  0  0  0  0  0  0  0  0  0  0
    1.9507   -0.6114   -0.2225 C   0  0  0  0  0  0  0  0  0  0  0  0
    0.5599   -0.5017    0.0024 C   0  0  0  0  0  0  0  0  0  0  0  0
   -0.1709   -1.5942    0.3541 N   0  0  0  0  0  0  0  0  0  0  0  0
   -3.0909   -0.2613    0.6023 H   0  0  0  0  0  0  0  0  0  0  0  0
    0.2715   -2.5004    0.4594 H   0  0  0  0  0  0  0  0  0  0  0  0
  1  2  2  0
  2  3  1  0
  3  4  1  0
  4  5  2  0
  4  6  1  0
  6  7  1  0
  7  8  1  0
  8  9  2  0
  8 10  1  0
 10 11  3  0
 11 12  1  0
 12 13  1  0
 13  2  1  0
 12  6  2  0
  3 14  1  0
 13 15  1  0
M  END
>  <Energy>  (1) 
-42.013920053187015

>  <Real charge>  (1) 
0

>  <Mult>  (1) 
1

>  <SMILES>  (1) 
O=c1[nH]c(=O)c2sc(=O)c#cc2[nH]1

$$$$
