aryne_2 7
     RDKit          3D

 12 13  0  0  0  0  0  0  0  0999 V2000
    2.4008   -0.9768   -0.0918 C   0  0  0  0  0  0  0  0  0  0  0  0
    1.2226   -1.5572   -0.2298 O   0  0  0  0  0  0  0  0  0  0  0  0
    0.2581   -0.5247   -0.0824 C   0  0  0  0  0  0  0  0  0  0  0  0
   -1.0366   -0.8372   -0.1778 C   0  0  0  0  0  0  0  0  0  0  0  0
   -1.9617    0.1528   -0.0365 N   0  0  0  0  0  0  0  0  0  0  0  0
   -1.6705    1.4601    0.1987 N   0  0  0  0  0  0  0  0  0  0  0  0
   -0.4581    1.8037    0.2969 N   0  0  0  0  0  0  0  0  0  0  0  0
    0.5345    0.8526    0.1644 N   0  0  0  0  0  0  0  0  0  0  0  0
    2.1154    1.4975    0.3265 S   0  0  0  0  0  0  0  0  0  0  0  0
    2.9454    0.0628    0.1052 C   0  0  0  0  0  0  0  0  0  0  0  0
   -1.4067   -1.8373   -0.3625 H   0  0  0  0  0  0  0  0  0  0  0  0
   -2.9432   -0.0963   -0.1110 H   0  0  0  0  0  0  0  0  0  0  0  0
  1  2  1  0
  2  3  1  0
  3  4  2  0
  4  5  1  0
  5  6  1  0
  6  7  2  0
  7  8  1  0
  8  9  1  0
  9 10  1  0
 10  1  3  0
  8  3  1  0
  4 11  1  0
  5 12  1  0
M  END
>  <Energy>  (1) 
96.28366327797747

>  <Real charge>  (1) 
0

>  <Mult>  (1) 
1

>  <SMILES>  (1) 
c1oc2c[nH]nnn-2sc#1

$$$$
