aryne_26 18
     RDKit          3D

 13 14  0  0  0  0  0  0  0  0999 V2000
   -2.4217    0.2688   -0.6122 C   0  0  0  0  0  0  0  0  0  0  0  0
   -1.5861   -0.8741   -0.3037 N   0  0  0  0  0  0  0  0  0  0  0  0
   -0.2692   -0.4484   -0.0189 C   0  0  0  0  0  0  0  0  0  0  0  0
    0.6567   -1.3843    0.4134 N   0  0  0  0  0  0  0  0  0  0  0  0
    1.9978   -1.1762    0.5545 N   0  0  0  0  0  0  0  0  0  0  0  0
    2.4326    0.0048    0.4975 N   0  0  0  0  0  0  0  0  0  0  0  0
    1.5488    0.9970    0.2269 N   0  0  0  0  0  0  0  0  0  0  0  0
    0.2189    0.8351   -0.1117 C   0  0  0  0  0  0  0  0  0  0  0  0
   -0.7664    2.2779   -0.5994 S   0  0  0  0  0  0  0  0  0  0  0  0
   -2.2090    1.4331   -0.7440 C   0  0  0  0  0  0  0  0  0  0  0  0
   -1.9156   -1.5204    0.4081 H   0  0  0  0  0  0  0  0  0  0  0  0
    0.3936   -2.3413    0.2094 H   0  0  0  0  0  0  0  0  0  0  0  0
    1.9197    1.9279    0.0799 H   0  0  0  0  0  0  0  0  0  0  0  0
  1  2  1  0
  2  3  1  0
  3  4  1  0
  4  5  1  0
  5  6  2  0
  6  7  1  0
  7  8  1  0
  8  9  1  0
  9 10  1  0
 10  1  3  0
  8  3  2  0
  2 11  1  0
  4 12  1  0
  7 13  1  0
M  END
>  <Energy>  (1) 
82.1577492286952

>  <Real charge>  (1) 
0

>  <Mult>  (1) 
1

>  <SMILES>  (1) 
c1[nH]c2[nH]nn[nH]c=2sc#1

$$$$
