aryne_6 18
     RDKit          3D

 14 15  0  0  0  0  0  0  0  0999 V2000
   -2.9839   -0.8947    0.4232 O   0  0  0  0  0  0  0  0  0  0  0  0
   -1.8140   -0.5303    0.3571 C   0  0  0  0  0  0  0  0  0  0  0  0
   -1.1800    0.1430    1.4993 C   0  0  0  0  0  0  0  0  0  0  0  0
    0.0774    0.5641    1.3511 C   0  0  0  0  0  0  0  0  0  0  0  0
    0.8385    0.4291    0.2051 N   0  0  0  0  0  0  0  0  0  0  0  0
    2.5497    0.4931    0.4642 S   0  0  0  0  0  0  0  0  0  0  0  0
    2.9430    0.5249   -1.1680 C   0  0  0  0  0  0  0  0  0  0  0  0
    2.2969    0.3428   -2.1530 C   0  0  0  0  0  0  0  0  0  0  0  0
    0.6801   -0.0171   -2.4349 S   0  0  0  0  0  0  0  0  0  0  0  0
    0.3201   -0.4802   -0.8313 N   0  0  0  0  0  0  0  0  0  0  0  0
   -1.0539   -0.7102   -0.7632 N   0  0  0  0  0  0  0  0  0  0  0  0
   -1.7575    0.2736    2.4026 H   0  0  0  0  0  0  0  0  0  0  0  0
    0.5693    1.0763    2.1740 H   0  0  0  0  0  0  0  0  0  0  0  0
   -1.4857   -1.2144   -1.5261 H   0  0  0  0  0  0  0  0  0  0  0  0
  1  2  2  0
  2  3  1  0
  3  4  2  0
  4  5  1  0
  5  6  1  0
  6  7  1  0
  7  8  3  0
  8  9  1  0
  9 10  1  0
 10 11  1  0
 11  2  1  0
 10  5  1  0
  3 12  1  0
  4 13  1  0
 11 14  1  0
M  END
>  <Energy>  (1) 
35.178233454662056

>  <Real charge>  (1) 
0

>  <Mult>  (1) 
1

>  <SMILES>  (1) 
O=c1ccn2sc#csn2[nH]1

$$$$
