aryne_5 9
     RDKit          3D

 14 15  0  0  0  0  0  0  0  0999 V2000
   -3.5164    0.9438    1.3386 O   0  0  0  0  0  0  0  0  0  0  0  0
   -2.3658    0.9019    0.9278 C   0  0  0  0  0  0  0  0  0  0  0  0
   -1.6343    2.0892    0.5998 C   0  0  0  0  0  0  0  0  0  0  0  0
   -0.5046    2.0659    0.2236 C   0  0  0  0  0  0  0  0  0  0  0  0
    0.3800    0.9305    0.0010 N   0  0  0  0  0  0  0  0  0  0  0  0
    1.3911    1.0873   -1.3290 S   0  0  0  0  0  0  0  0  0  0  0  0
    2.2472   -0.4170   -1.2281 C   0  0  0  0  0  0  0  0  0  0  0  0
    1.9080   -1.4674   -0.4655 C   0  0  0  0  0  0  0  0  0  0  0  0
    0.5485   -1.5613    0.6084 S   0  0  0  0  0  0  0  0  0  0  0  0
   -0.3831   -0.3131    0.0282 N   0  0  0  0  0  0  0  0  0  0  0  0
   -1.6267   -0.2696    0.7562 N   0  0  0  0  0  0  0  0  0  0  0  0
    3.1295   -0.4968   -1.8560 H   0  0  0  0  0  0  0  0  0  0  0  0
    2.5417   -2.3488   -0.4937 H   0  0  0  0  0  0  0  0  0  0  0  0
   -2.1151   -1.1445    0.8885 H   0  0  0  0  0  0  0  0  0  0  0  0
  1  2  2  0
  2  3  1  0
  3  4  3  0
  4  5  1  0
  5  6  1  0
  6  7  1  0
  7  8  2  0
  8  9  1  0
  9 10  1  0
 10 11  1  0
 11  2  1  0
 10  5  1  0
  7 12  1  0
  8 13  1  0
 11 14  1  0
M  END
>  <Energy>  (1) 
44.819841007103655

>  <Real charge>  (1) 
0

>  <Mult>  (1) 
1

>  <SMILES>  (1) 
O=c1c#cn2sccsn2[nH]1

$$$$
