aryne_149 6
     RDKit          3D

 15 16  0  0  0  0  0  0  0  0999 V2000
   -3.1153   -0.1620    0.4175 O   0  0  0  0  0  0  0  0  0  0  0  0
   -2.0170    0.3691    0.3647 C   0  0  0  0  0  0  0  0  0  0  0  0
   -1.8643    1.7692    0.6215 C   0  0  0  0  0  0  0  0  0  0  0  0
   -0.8454    2.3868    0.5973 C   0  0  0  0  0  0  0  0  0  0  0  0
    0.4800    1.9116    0.3114 C   0  0  0  0  0  0  0  0  0  0  0  0
    1.4089    2.7002    0.3343 O   0  0  0  0  0  0  0  0  0  0  0  0
    0.4831    0.5276    0.0353 N   0  0  0  0  0  0  0  0  0  0  0  0
    1.6485   -0.1546   -0.2688 C   0  0  0  0  0  0  0  0  0  0  0  0
    2.7703    0.3433   -0.3316 O   0  0  0  0  0  0  0  0  0  0  0  0
    1.5145   -1.5030   -0.5179 N   0  0  0  0  0  0  0  0  0  0  0  0
    0.3641   -2.2253   -0.4957 N   0  0  0  0  0  0  0  0  0  0  0  0
   -0.7204   -1.5852   -0.2117 C   0  0  0  0  0  0  0  0  0  0  0  0
   -0.7902   -0.2470    0.0649 N   0  0  0  0  0  0  0  0  0  0  0  0
    2.3664   -2.0101   -0.7419 H   0  0  0  0  0  0  0  0  0  0  0  0
   -1.6833   -2.1205   -0.1793 H   0  0  0  0  0  0  0  0  0  0  0  0
  1  2  2  0
  2  3  1  0
  3  4  3  0
  4  5  1  0
  5  6  2  0
  5  7  1  0
  7  8  1  0
  8  9  2  0
  8 10  1  0
 10 11  1  0
 11 12  2  0
 12 13  1  0
 13  2  1  0
 13  7  1  0
 10 14  1  0
 12 15  1  0
M  END
>  <Energy>  (1) 
64.86844717320471

>  <Real charge>  (1) 
0

>  <Mult>  (1) 
1

>  <SMILES>  (1) 
O=c1c#cc(=O)n2c(=O)[nH]ncn12

$$$$
