aryne_32 21
     RDKit          3D

 13 14  0  0  0  0  0  0  0  0999 V2000
   -1.6578    2.2093    0.5314 O   0  0  0  0  0  0  0  0  0  0  0  0
   -1.2738    1.0827    0.2207 C   0  0  0  0  0  0  0  0  0  0  0  0
   -2.0948    0.0067    0.4410 N   0  0  0  0  0  0  0  0  0  0  0  0
   -1.7474   -1.1471    0.0005 C   0  0  0  0  0  0  0  0  0  0  0  0
   -0.6201   -1.5013   -0.6600 O   0  0  0  0  0  0  0  0  0  0  0  0
    0.4216   -0.4957   -0.5852 N   0  0  0  0  0  0  0  0  0  0  0  0
    1.5051   -0.9278    0.2804 N   0  0  0  0  0  0  0  0  0  0  0  0
    2.4363    0.1871    0.4585 C   0  0  0  0  0  0  0  0  0  0  0  0
    2.3912    1.3499    0.1973 C   0  0  0  0  0  0  0  0  0  0  0  0
    1.1201    2.1788   -0.5331 S   0  0  0  0  0  0  0  0  0  0  0  0
   -0.0309    0.8498   -0.3676 N   0  0  0  0  0  0  0  0  0  0  0  0
   -2.3983   -2.0271    0.1151 H   0  0  0  0  0  0  0  0  0  0  0  0
    1.9487   -1.7654   -0.0990 H   0  0  0  0  0  0  0  0  0  0  0  0
  1  2  2  0
  2  3  1  0
  3  4  2  0
  4  5  1  0
  5  6  1  0
  6  7  1  0
  7  8  1  0
  8  9  3  0
  9 10  1  0
 10 11  1  0
 11  2  1  0
 11  6  1  0
  4 12  1  0
  7 13  1  0
M  END
>  <Energy>  (1) 
71.41717775324841

>  <Real charge>  (1) 
0

>  <Mult>  (1) 
1

>  <SMILES>  (1) 
O=c1ncon2[nH]c#csn12

$$$$
