aryne_29 7
     RDKit          3D

 10 11  0  0  0  0  0  0  0  0999 V2000
   -1.8605    1.7823   -0.1738 O   0  0  0  0  0  0  0  0  0  0  0  0
   -1.2636    0.7112   -0.1904 C   0  0  0  0  0  0  0  0  0  0  0  0
   -1.9369   -0.4794   -0.5601 O   0  0  0  0  0  0  0  0  0  0  0  0
   -1.1501   -1.5519   -0.5271 C   0  0  0  0  0  0  0  0  0  0  0  0
   -0.0209   -1.8468   -0.2781 C   0  0  0  0  0  0  0  0  0  0  0  0
    0.7746   -0.6993    0.1167 N   0  0  0  0  0  0  0  0  0  0  0  0
    2.0525   -0.5812    0.4715 N   0  0  0  0  0  0  0  0  0  0  0  0
    2.2146    0.7156    0.7241 N   0  0  0  0  0  0  0  0  0  0  0  0
    1.0397    1.4218    0.5298 N   0  0  0  0  0  0  0  0  0  0  0  0
    0.1505    0.5278    0.1514 C   0  0  0  0  0  0  0  0  0  0  0  0
  1  2  2  0
  2  3  1  0
  3  4  1  0
  4  5  3  0
  5  6  1  0
  6  7  1  0
  7  8  2  0
  8  9  1  0
  9 10  2  0
 10  2  1  0
 10  6  1  0
M  END
>  <Energy>  (1) 
57.98267603646477

>  <Real charge>  (1) 
0

>  <Mult>  (1) 
1

>  <SMILES>  (1) 
O=c1oc#cn2nnnc12

$$$$
