aryne_132 6
     RDKit          3D

 11 12  0  0  0  0  0  0  0  0999 V2000
   -1.8562    1.1628    1.5775 O   0  0  0  0  0  0  0  0  0  0  0  0
   -1.3639    0.6644    0.5707 C   0  0  0  0  0  0  0  0  0  0  0  0
   -2.2126    0.7530   -0.9661 S   0  0  0  0  0  0  0  0  0  0  0  0
   -1.5972   -0.5920   -1.7450 N   0  0  0  0  0  0  0  0  0  0  0  0
   -0.3694   -0.8309   -1.7523 N   0  0  0  0  0  0  0  0  0  0  0  0
    0.4230   -0.2203   -0.8209 N   0  0  0  0  0  0  0  0  0  0  0  0
    2.1323   -0.5495   -1.0646 S   0  0  0  0  0  0  0  0  0  0  0  0
    2.5841   -0.3607    0.5307 C   0  0  0  0  0  0  0  0  0  0  0  0
    1.8355   -0.1233    1.4234 C   0  0  0  0  0  0  0  0  0  0  0  0
    0.5762    0.0901    1.7459 O   0  0  0  0  0  0  0  0  0  0  0  0
   -0.1517    0.0063    0.5005 N   0  0  0  0  0  0  0  0  0  0  0  0
  1  2  2  0
  2  3  1  0
  3  4  1  0
  4  5  2  0
  5  6  1  0
  6  7  1  0
  7  8  1  0
  8  9  3  0
  9 10  1  0
 10 11  1  0
 11  2  1  0
 11  6  1  0
M  END
>  <Energy>  (1) 
83.7667812568776

>  <Real charge>  (1) 
0

>  <Mult>  (1) 
1

>  <SMILES>  (1) 
O=c1snnn2sc#con12

$$$$
