aryne_24 9
     RDKit          3D

 13 14  0  0  0  0  0  0  0  0999 V2000
    0.7278    2.1935   -1.0656 O   0  0  0  0  0  0  0  0  0  0  0  0
    0.1823    1.1748   -0.6522 C   0  0  0  0  0  0  0  0  0  0  0  0
   -1.2238    0.8960   -1.0329 C   0  0  0  0  0  0  0  0  0  0  0  0
   -1.8165   -0.2161   -0.5806 C   0  0  0  0  0  0  0  0  0  0  0  0
   -1.2237   -1.1529    0.2296 N   0  0  0  0  0  0  0  0  0  0  0  0
   -0.0023   -0.8839    0.5437 C   0  0  0  0  0  0  0  0  0  0  0  0
    0.6727   -1.8106    1.3799 C   0  0  0  0  0  0  0  0  0  0  0  0
    1.7952   -1.4985    1.6287 C   0  0  0  0  0  0  0  0  0  0  0  0
    2.6281   -0.4940    1.3369 N   0  0  0  0  0  0  0  0  0  0  0  0
    2.0861    0.3860    0.5818 N   0  0  0  0  0  0  0  0  0  0  0  0
    0.7435    0.2167    0.1586 N   0  0  0  0  0  0  0  0  0  0  0  0
   -1.7211    1.6143   -1.6709 H   0  0  0  0  0  0  0  0  0  0  0  0
   -2.8482   -0.4253   -0.8570 H   0  0  0  0  0  0  0  0  0  0  0  0
  1  2  2  0
  2  3  1  0
  3  4  2  0
  4  5  1  0
  5  6  2  0
  6  7  1  0
  7  8  3  0
  8  9  1  0
  9 10  2  0
 10 11  1  0
 11  2  1  0
 11  6  1  0
  3 12  1  0
  4 13  1  0
M  END
>  <Energy>  (1) 
55.81449577121514

>  <Real charge>  (1) 
0

>  <Mult>  (1) 
1

>  <SMILES>  (1) 
O=c1ccnc2c#cnnn12

$$$$
