aryne_10 7
     RDKit          3D

 14 15  0  0  0  0  0  0  0  0999 V2000
   -3.0613   -1.0247    0.6149 O   0  0  0  0  0  0  0  0  0  0  0  0
   -1.9253   -0.5898    0.5380 C   0  0  0  0  0  0  0  0  0  0  0  0
   -0.8948   -1.2677   -0.0157 O   0  0  0  0  0  0  0  0  0  0  0  0
    0.3749   -0.6982   -0.2589 C   0  0  0  0  0  0  0  0  0  0  0  0
    1.3366   -1.6196   -0.7439 N   0  0  0  0  0  0  0  0  0  0  0  0
    2.5222   -0.8884   -1.1702 C   0  0  0  0  0  0  0  0  0  0  0  0
    2.6279    0.2872   -0.9920 C   0  0  0  0  0  0  0  0  0  0  0  0
    1.8835    1.2608   -0.4735 O   0  0  0  0  0  0  0  0  0  0  0  0
    0.6481    0.6407   -0.1060 C   0  0  0  0  0  0  0  0  0  0  0  0
   -0.4097    1.5089    0.4315 C   0  0  0  0  0  0  0  0  0  0  0  0
   -0.3873    2.7269    0.3739 O   0  0  0  0  0  0  0  0  0  0  0  0
   -1.5423    0.7696    1.0815 C   0  0  0  0  0  0  0  0  0  0  0  0
   -2.1064    1.2349    2.0596 O   0  0  0  0  0  0  0  0  0  0  0  0
    0.9340   -2.3406   -1.3393 H   0  0  0  0  0  0  0  0  0  0  0  0
  1  2  2  0
  2  3  1  0
  3  4  1  0
  4  5  1  0
  5  6  1  0
  6  7  3  0
  7  8  1  0
  8  9  1  0
  9 10  1  0
 10 11  2  0
 10 12  1  0
 12 13  2  0
 12  2  1  0
  9  4  2  0
  5 14  1  0
M  END
>  <Energy>  (1) 
129.93340551337081

>  <Real charge>  (1) 
0

>  <Mult>  (1) 
1

>  <SMILES>  (1) 
O=c1oc2[nH]c#coc=2c(=O)c1=O

$$$$
aryne_10 29
     RDKit          3D

 14 15  0  0  0  0  0  0  0  0999 V2000
   -1.7826   -2.7505    0.3560 O   0  0  0  0  0  0  0  0  0  0  0  0
   -1.1936   -1.6839    0.3133 C   0  0  0  0  0  0  0  0  0  0  0  0
    0.0983   -1.5545   -0.0609 O   0  0  0  0  0  0  0  0  0  0  0  0
    0.7302   -0.3128   -0.2862 C   0  0  0  0  0  0  0  0  0  0  0  0
    2.0975   -0.4191   -0.6417 N   0  0  0  0  0  0  0  0  0  0  0  0
    2.6748    0.9141   -0.7310 C   0  0  0  0  0  0  0  0  0  0  0  0
    1.9967    1.8917   -0.6347 C   0  0  0  0  0  0  0  0  0  0  0  0
    0.7126    2.1649   -0.4168 O   0  0  0  0  0  0  0  0  0  0  0  0
    0.0839    0.8974   -0.2037 C   0  0  0  0  0  0  0  0  0  0  0  0
   -1.3417    0.9066    0.1551 C   0  0  0  0  0  0  0  0  0  0  0  0
   -2.0664    1.8796    0.0275 O   0  0  0  0  0  0  0  0  0  0  0  0
   -1.8507   -0.3845    0.7256 C   0  0  0  0  0  0  0  0  0  0  0  0
   -2.7457   -0.3788    1.5577 O   0  0  0  0  0  0  0  0  0  0  0  0
    2.5867   -1.1703   -0.1602 H   0  0  0  0  0  0  0  0  0  0  0  0
  1  2  2  0
  2  3  1  0
  3  4  1  0
  4  5  1  0
  5  6  1  0
  6  7  3  0
  7  8  1  0
  8  9  1  0
  9 10  1  0
 10 11  2  0
 10 12  1  0
 12 13  2  0
 12  2  1  0
  9  4  2  0
  5 14  1  0
M  END
>  <Energy>  (2) 
130.46944516491249

>  <Real charge>  (2) 
0

>  <Mult>  (2) 
1

>  <SMILES>  (2) 
O=c1oc2[nH]c#coc=2c(=O)c1=O

$$$$
