aryne_13 3
     RDKit          3D

 11 12  0  0  0  0  0  0  0  0999 V2000
    2.2309    0.2439   -1.1449 C   0  0  0  0  0  0  0  0  0  0  0  0
    1.1572   -0.3903   -1.5555 O   0  0  0  0  0  0  0  0  0  0  0  0
    0.1431   -0.2400   -0.5492 N   0  0  0  0  0  0  0  0  0  0  0  0
   -1.0206   -0.8745   -0.8962 N   0  0  0  0  0  0  0  0  0  0  0  0
   -2.0138   -0.8130   -0.0699 C   0  0  0  0  0  0  0  0  0  0  0  0
   -2.0389    0.0053    1.4712 S   0  0  0  0  0  0  0  0  0  0  0  0
   -0.5195    0.6707    1.6206 N   0  0  0  0  0  0  0  0  0  0  0  0
    0.3502    0.4941    0.6686 C   0  0  0  0  0  0  0  0  0  0  0  0
    1.9281    1.3318    1.0968 S   0  0  0  0  0  0  0  0  0  0  0  0
    2.7315    0.8963   -0.2896 C   0  0  0  0  0  0  0  0  0  0  0  0
   -2.9484   -1.3243   -0.3517 H   0  0  0  0  0  0  0  0  0  0  0  0
  1  2  1  0
  2  3  1  0
  3  4  1  0
  4  5  2  0
  5  6  1  0
  6  7  1  0
  7  8  2  0
  8  9  1  0
  9 10  1  0
 10  1  3  0
  8  3  1  0
  5 11  1  0
M  END
>  <Energy>  (1) 
127.70209977921488

>  <Real charge>  (1) 
0

>  <Mult>  (1) 
1

>  <SMILES>  (1) 
c1on2ncsnc-2sc#1

$$$$
