aryne_40 45
     RDKit          3D

 14 15  0  0  0  0  0  0  0  0999 V2000
    2.9942   -0.0853    1.0707 O   0  0  0  0  0  0  0  0  0  0  0  0
    1.8676   -0.0402    0.6138 C   0  0  0  0  0  0  0  0  0  0  0  0
    1.0152    1.1551    0.5894 C   0  0  0  0  0  0  0  0  0  0  0  0
   -0.1214    0.7664    0.0076 C   0  0  0  0  0  0  0  0  0  0  0  0
   -1.2867    1.5176   -0.2186 N   0  0  0  0  0  0  0  0  0  0  0  0
   -2.3677    0.6333   -0.6414 C   0  0  0  0  0  0  0  0  0  0  0  0
   -2.3004   -0.5259   -0.9220 C   0  0  0  0  0  0  0  0  0  0  0  0
   -1.1185   -1.3815   -0.9203 N   0  0  0  0  0  0  0  0  0  0  0  0
   -0.0367   -0.6937   -0.3458 C   0  0  0  0  0  0  0  0  0  0  0  0
    1.1506   -1.1780    0.0247 C   0  0  0  0  0  0  0  0  0  0  0  0
    1.2994    2.1140    0.9784 H   0  0  0  0  0  0  0  0  0  0  0  0
   -1.4555    2.2456    0.4681 H   0  0  0  0  0  0  0  0  0  0  0  0
   -1.1884   -2.3561   -0.6457 H   0  0  0  0  0  0  0  0  0  0  0  0
    1.5481   -2.1713   -0.0588 H   0  0  0  0  0  0  0  0  0  0  0  0
  1  2  2  0
  2  3  1  0
  3  4  2  0
  4  5  1  0
  5  6  1  0
  6  7  3  0
  7  8  1  0
  8  9  1  0
  9 10  2  0
 10  2  1  0
  9  4  1  0
  3 11  1  0
  5 12  1  0
  8 13  1  0
 10 14  1  0
M  END
>  <Energy>  (1) 
67.66338995072664

>  <Real charge>  (1) 
0

>  <Mult>  (1) 
1

>  <SMILES>  (1) 
O=c1cc2[nH]c#c[nH]c-2c1

$$$$
aryne_40 41
     RDKit          3D

 14 15  0  0  0  0  0  0  0  0999 V2000
    3.1744    0.2948   -0.0494 O   0  0  0  0  0  0  0  0  0  0  0  0
    1.9631    0.1823   -0.0306 C   0  0  0  0  0  0  0  0  0  0  0  0
    1.2352   -1.0931   -0.0140 C   0  0  0  0  0  0  0  0  0  0  0  0
   -0.0563   -0.7596    0.0313 C   0  0  0  0  0  0  0  0  0  0  0  0
   -1.1708   -1.6081    0.1477 N   0  0  0  0  0  0  0  0  0  0  0  0
   -2.3972   -0.8213    0.0749 C   0  0  0  0  0  0  0  0  0  0  0  0
   -2.5086    0.3656    0.0014 C   0  0  0  0  0  0  0  0  0  0  0  0
   -1.4509    1.3646   -0.1069 N   0  0  0  0  0  0  0  0  0  0  0  0
   -0.1962    0.7362   -0.0274 C   0  0  0  0  0  0  0  0  0  0  0  0
    1.0126    1.3019   -0.0209 C   0  0  0  0  0  0  0  0  0  0  0  0
    1.7004   -2.0596    0.0214 H   0  0  0  0  0  0  0  0  0  0  0  0
   -1.0862   -2.4705   -0.3817 H   0  0  0  0  0  0  0  0  0  0  0  0
   -1.5102    2.2294    0.4221 H   0  0  0  0  0  0  0  0  0  0  0  0
    1.2906    2.3374   -0.0679 H   0  0  0  0  0  0  0  0  0  0  0  0
  1  2  2  0
  2  3  1  0
  3  4  2  0
  4  5  1  0
  5  6  1  0
  6  7  3  0
  7  8  1  0
  8  9  1  0
  9 10  2  0
 10  2  1  0
  9  4  1  0
  3 11  1  0
  5 12  1  0
  8 13  1  0
 10 14  1  0
M  END
>  <Energy>  (2) 
67.91832980308565

>  <Real charge>  (2) 
0

>  <Mult>  (2) 
1

>  <SMILES>  (2) 
O=c1cc2[nH]c#c[nH]c-2c1

$$$$
