aryne_17 13
     RDKit          3D

  6  6  0  0  0  0  0  0  0  0999 V2000
   -0.8711   -0.8306    0.4500 C   0  0  0  0  0  0  0  0  0  0  0  0
   -1.2541    0.4461    0.4462 N   0  0  0  0  0  0  0  0  0  0  0  0
   -0.2909    1.0724   -0.1097 N   0  0  0  0  0  0  0  0  0  0  0  0
    0.6513    0.1034   -0.5083 N   0  0  0  0  0  0  0  0  0  0  0  0
    0.1648   -1.1674   -0.0199 C   0  0  0  0  0  0  0  0  0  0  0  0
    1.6000    0.3760   -0.2583 H   0  0  0  0  0  0  0  0  0  0  0  0
  1  2  1  0
  2  3  2  0
  3  4  1  0
  4  5  1  0
  5  1  3  0
  4  6  1  0
M  END
>  <Energy>  (1) 
95.71281096620231

>  <Real charge>  (1) 
0

>  <Mult>  (1) 
1

>  <SMILES>  (1) 
c1nn[nH]c#1

$$$$
