aryne_25 7
     RDKit          3D

 12 13  0  0  0  0  0  0  0  0999 V2000
   -0.3377    1.7997    1.5463 C   0  0  0  0  0  0  0  0  0  0  0  0
   -1.5367    1.8444    0.9166 N   0  0  0  0  0  0  0  0  0  0  0  0
   -1.6164    0.9177   -0.0220 C   0  0  0  0  0  0  0  0  0  0  0  0
   -0.5204    0.0406   -0.2529 N   0  0  0  0  0  0  0  0  0  0  0  0
   -0.4950   -0.9360   -1.1806 N   0  0  0  0  0  0  0  0  0  0  0  0
    0.7244   -1.4740   -1.0151 C   0  0  0  0  0  0  0  0  0  0  0  0
    1.4864   -0.8544    0.0101 C   0  0  0  0  0  0  0  0  0  0  0  0
    0.6534    0.1186    0.4811 C   0  0  0  0  0  0  0  0  0  0  0  0
    0.6590    1.1367    1.4662 C   0  0  0  0  0  0  0  0  0  0  0  0
   -2.5206    0.8038   -0.6393 H   0  0  0  0  0  0  0  0  0  0  0  0
    1.0167   -2.3021   -1.6499 H   0  0  0  0  0  0  0  0  0  0  0  0
    2.4868   -1.0950    0.3394 H   0  0  0  0  0  0  0  0  0  0  0  0
  1  2  1  0
  2  3  2  0
  3  4  1  0
  4  5  1  0
  5  6  2  0
  6  7  1  0
  7  8  2  0
  8  9  1  0
  9  1  3  0
  8  4  1  0
  3 10  1  0
  6 11  1  0
  7 12  1  0
M  END
>  <Energy>  (1) 
112.70078761879472

>  <Real charge>  (1) 
0

>  <Mult>  (1) 
1

>  <SMILES>  (1) 
c1ncn2nccc2c#1

$$$$
