aryne_9 8
     RDKit          3D

 13 14  0  0  0  0  0  0  0  0999 V2000
    0.8887   -2.3594    0.6444 C   0  0  0  0  0  0  0  0  0  0  0  0
    0.3927   -1.2101    1.3798 N   0  0  0  0  0  0  0  0  0  0  0  0
    0.0213   -0.1715    0.4673 N   0  0  0  0  0  0  0  0  0  0  0  0
   -0.6895    0.9042    0.9333 C   0  0  0  0  0  0  0  0  0  0  0  0
   -1.0488    1.9201    0.2150 N   0  0  0  0  0  0  0  0  0  0  0  0
   -0.5723    1.9435   -1.0555 N   0  0  0  0  0  0  0  0  0  0  0  0
   -0.1451    0.8186   -1.6884 N   0  0  0  0  0  0  0  0  0  0  0  0
    0.1964   -0.1944   -0.9368 C   0  0  0  0  0  0  0  0  0  0  0  0
    0.8640   -1.6211   -1.8449 S   0  0  0  0  0  0  0  0  0  0  0  0
    1.0916   -2.5958   -0.5039 C   0  0  0  0  0  0  0  0  0  0  0  0
    1.0620   -0.8542    2.0657 H   0  0  0  0  0  0  0  0  0  0  0  0
   -0.9801    0.8340    1.9940 H   0  0  0  0  0  0  0  0  0  0  0  0
   -1.0809    2.5862   -1.6700 H   0  0  0  0  0  0  0  0  0  0  0  0
  1  2  1  0
  2  3  1  0
  3  4  1  0
  4  5  2  0
  5  6  1  0
  6  7  1  0
  7  8  2  0
  8  9  1  0
  9 10  1  0
 10  1  3  0
  8  3  1  0
  2 11  1  0
  4 12  1  0
  6 13  1  0
M  END
>  <Energy>  (1) 
100.28827100481482

>  <Real charge>  (1) 
0

>  <Mult>  (1) 
1

>  <SMILES>  (1) 
c1[nH]n2cn[nH]nc-2sc#1

$$$$
aryne_9 56
     RDKit          3D

 13 14  0  0  0  0  0  0  0  0999 V2000
    1.4802   -2.1478   -0.0356 C   0  0  0  0  0  0  0  0  0  0  0  0
    0.2859   -1.7314    0.6776 N   0  0  0  0  0  0  0  0  0  0  0  0
   -0.0328   -0.3740    0.3432 N   0  0  0  0  0  0  0  0  0  0  0  0
   -1.1390    0.2103    0.9042 C   0  0  0  0  0  0  0  0  0  0  0  0
   -1.5525    1.4113    0.6541 N   0  0  0  0  0  0  0  0  0  0  0  0
   -0.7508    2.1629   -0.1360 N   0  0  0  0  0  0  0  0  0  0  0  0
    0.2492    1.6419   -0.8892 N   0  0  0  0  0  0  0  0  0  0  0  0
    0.6342    0.4235   -0.6171 C   0  0  0  0  0  0  0  0  0  0  0  0
    2.0637   -0.1489   -1.5849 S   0  0  0  0  0  0  0  0  0  0  0  0
    2.1793   -1.6529   -0.8612 C   0  0  0  0  0  0  0  0  0  0  0  0
   -0.5139   -2.3415    0.4962 H   0  0  0  0  0  0  0  0  0  0  0  0
   -1.7057   -0.4459    1.5842 H   0  0  0  0  0  0  0  0  0  0  0  0
   -1.1979    2.9925   -0.5356 H   0  0  0  0  0  0  0  0  0  0  0  0
  1  2  1  0
  2  3  1  0
  3  4  1  0
  4  5  2  0
  5  6  1  0
  6  7  1  0
  7  8  2  0
  8  9  1  0
  9 10  1  0
 10  1  3  0
  8  3  1  0
  2 11  1  0
  4 12  1  0
  6 13  1  0
M  END
>  <Energy>  (2) 
100.96684709453899

>  <Real charge>  (2) 
0

>  <Mult>  (2) 
1

>  <SMILES>  (2) 
c1[nH]n2cn[nH]nc-2sc#1

$$$$
