aryne_330 8
     RDKit          3D

 10 11  0  0  0  0  0  0  0  0999 V2000
    2.0936   -0.2984   -0.2640 C   0  0  0  0  0  0  0  0  0  0  0  0
    1.3271   -1.3175   -0.6156 O   0  0  0  0  0  0  0  0  0  0  0  0
    0.0227   -1.0777    0.0840 N   0  0  0  0  0  0  0  0  0  0  0  0
   -1.0253   -1.5551   -0.8363 O   0  0  0  0  0  0  0  0  0  0  0  0
   -1.8173   -0.4447   -1.2447 N   0  0  0  0  0  0  0  0  0  0  0  0
   -1.3518    0.5465   -0.5500 C   0  0  0  0  0  0  0  0  0  0  0  0
   -0.3458    0.3083    0.3331 N   0  0  0  0  0  0  0  0  0  0  0  0
    0.7203    1.4857    0.9057 S   0  0  0  0  0  0  0  0  0  0  0  0
    2.0937    0.7707    0.2619 C   0  0  0  0  0  0  0  0  0  0  0  0
   -1.7172    1.5821   -0.6293 H   0  0  0  0  0  0  0  0  0  0  0  0
  1  2  1  0
  2  3  1  0
  3  4  1  0
  4  5  1  0
  5  6  2  0
  6  7  1  0
  7  8  1  0
  8  9  1  0
  9  1  3  0
  7  3  1  0
  6 10  1  0
M  END
>  <Energy>  (1) 
69.40766030974365

>  <Real charge>  (1) 
0

>  <Mult>  (1) 
1

>  <SMILES>  (1) 
c1on2oncn2sc#1

$$$$
