aryne_111 30
     RDKit          3D

 13 14  0  0  0  0  0  0  0  0999 V2000
    1.1421   -0.4277    2.7714 C   0  0  0  0  0  0  0  0  0  0  0  0
    1.8188    1.0893    2.5447 S   0  0  0  0  0  0  0  0  0  0  0  0
    1.2758    1.3874    0.9481 N   0  0  0  0  0  0  0  0  0  0  0  0
    0.6124    0.4863    0.2472 C   0  0  0  0  0  0  0  0  0  0  0  0
    0.1812    0.8399   -1.0171 N   0  0  0  0  0  0  0  0  0  0  0  0
   -0.7629    0.1139   -1.6850 C   0  0  0  0  0  0  0  0  0  0  0  0
   -1.3309   -0.9327   -1.0795 C   0  0  0  0  0  0  0  0  0  0  0  0
   -1.0301   -1.2823    0.2264 O   0  0  0  0  0  0  0  0  0  0  0  0
    0.2758   -0.8655    0.5726 N   0  0  0  0  0  0  0  0  0  0  0  0
    0.5690   -1.0931    1.9690 C   0  0  0  0  0  0  0  0  0  0  0  0
    0.3913    1.7799   -1.3271 H   0  0  0  0  0  0  0  0  0  0  0  0
   -1.0272    0.4535   -2.6793 H   0  0  0  0  0  0  0  0  0  0  0  0
   -2.1155   -1.5489   -1.4913 H   0  0  0  0  0  0  0  0  0  0  0  0
  1  2  1  0
  2  3  1  0
  3  4  2  0
  4  5  1  0
  5  6  1  0
  6  7  2  0
  7  8  1  0
  8  9  1  0
  9 10  1  0
 10  1  3  0
  9  4  1  0
  5 11  1  0
  6 12  1  0
  7 13  1  0
M  END
>  <Energy>  (1) 
69.10720391158611

>  <Real charge>  (1) 
0

>  <Mult>  (1) 
1

>  <SMILES>  (1) 
c1snc2[nH]ccon-2c#1

$$$$
