aryne_1712 14
     RDKit          3D

 16 17  0  0  0  0  0  0  0  0999 V2000
    2.6803    0.4124    0.0876 C   0  0  0  0  0  0  0  0  0  0  0  0
    2.5047   -0.7575    0.8829 C   0  0  0  0  0  0  0  0  0  0  0  0
    1.2181   -1.1793    0.9977 C   0  0  0  0  0  0  0  0  0  0  0  0
    0.1367   -0.4044    0.3026 C   0  0  0  0  0  0  0  0  0  0  0  0
   -1.1461   -0.7869    0.3905 N   0  0  0  0  0  4  0  0  0  0  0  0
   -2.1353   -0.1108   -0.2224 C   0  0  0  0  0  0  0  0  0  0  0  0
   -1.8519    1.0283   -0.9809 C   0  0  0  0  0  0  0  0  0  0  0  0
   -0.5380    1.4757   -1.1099 C   0  0  0  0  0  0  0  0  0  0  0  0
    0.4526    0.7582   -0.4678 C   0  0  0  0  0  0  0  0  0  0  0  0
    1.8473    1.0571   -0.4813 C   0  0  0  0  0  0  0  0  0  0  0  0
    3.3477   -1.2552    1.3502 H   0  0  0  0  0  0  0  0  0  0  0  0
    0.9656   -2.0582    1.5783 H   0  0  0  0  0  0  0  0  0  0  0  0
   -1.3761   -1.6145    0.9382 H   0  0  0  0  0  0  0  0  0  0  0  0
   -3.1426   -0.4952   -0.0945 H   0  0  0  0  0  0  0  0  0  0  0  0
   -2.6591    1.5694   -1.4736 H   0  0  0  0  0  0  0  0  0  0  0  0
   -0.3039    2.3610   -1.6975 H   0  0  0  0  0  0  0  0  0  0  0  0
  1  2  1  0
  2  3  2  0
  3  4  1  0
  4  5  2  0
  5  6  1  0
  6  7  2  0
  7  8  1  0
  8  9  2  0
  9 10  1  0
 10  1  3  0
  9  4  1  0
  2 11  1  0
  3 12  1  0
  5 13  1  0
  6 14  1  0
  7 15  1  0
  8 16  1  0
M  CHG  1   5   1
M  END
>  <Energy>  (1) 
103.97787312498569

>  <Real charge>  (1) 
1

>  <Mult>  (1) 
1

>  <SMILES>  (1) 
c1ccc2[nH+]cccc2c#1

$$$$
