aryne_280 9
     RDKit          3D

 12 13  0  0  0  0  0  0  0  0999 V2000
   -1.2032   -1.7476    0.3116 C   0  0  0  0  0  0  0  0  0  0  0  0
   -1.9612   -0.5914   -0.0323 C   0  0  0  0  0  0  0  0  0  0  0  0
   -1.1908    0.4658   -0.3960 C   0  0  0  0  0  0  0  0  0  0  0  0
    0.2246    0.4065   -0.4685 N   0  0  0  0  0  0  0  0  0  0  0  0
    0.9150    1.6129   -0.3401 O   0  0  0  0  0  0  0  0  0  0  0  0
    2.3010    1.5091   -0.0869 N   0  0  0  0  0  0  0  0  0  0  0  0
    2.7493    0.5267    0.5531 N   0  0  0  0  0  0  0  0  0  0  0  0
    1.8636   -0.5084    0.8970 O   0  0  0  0  0  0  0  0  0  0  0  0
    0.9482   -0.7548   -0.1164 N   0  0  0  0  0  0  0  0  0  0  0  0
   -0.0079   -1.7970    0.2891 C   0  0  0  0  0  0  0  0  0  0  0  0
   -3.0402   -0.5610    0.0324 H   0  0  0  0  0  0  0  0  0  0  0  0
   -1.5984    1.4391   -0.6430 H   0  0  0  0  0  0  0  0  0  0  0  0
  1  2  1  0
  2  3  2  0
  3  4  1  0
  4  5  1  0
  5  6  1  0
  6  7  2  0
  7  8  1  0
  8  9  1  0
  9 10  1  0
 10  1  3  0
  9  4  1  0
  2 11  1  0
  3 12  1  0
M  END
>  <Energy>  (1) 
89.95278339454646

>  <Real charge>  (1) 
0

>  <Mult>  (1) 
1

>  <SMILES>  (1) 
c1ccn2onnon2c#1

$$$$
