aryne_31 25
     RDKit          3D

 13 14  0  0  0  0  0  0  0  0999 V2000
   -2.6052   -0.0937    1.7942 O   0  0  0  0  0  0  0  0  0  0  0  0
   -1.5052   -0.4365    1.4086 C   0  0  0  0  0  0  0  0  0  0  0  0
   -0.7113   -1.5238    1.9477 C   0  0  0  0  0  0  0  0  0  0  0  0
    0.3339   -1.6322    1.3700 C   0  0  0  0  0  0  0  0  0  0  0  0
    0.4155   -0.6509    0.3617 C   0  0  0  0  0  0  0  0  0  0  0  0
    1.4268   -0.4223   -0.5217 N   0  0  0  0  0  0  0  0  0  0  0  0
    1.2462    0.6212   -1.4190 C   0  0  0  0  0  0  0  0  0  0  0  0
    0.2000    1.4109   -1.5036 N   0  0  0  0  0  0  0  0  0  0  0  0
   -0.8131    1.1430   -0.5807 N   0  0  0  0  0  0  0  0  0  0  0  0
   -0.6784    0.1265    0.3204 C   0  0  0  0  0  0  0  0  0  0  0  0
    2.2558   -0.9972   -0.5043 H   0  0  0  0  0  0  0  0  0  0  0  0
    2.0989    0.7532   -2.1049 H   0  0  0  0  0  0  0  0  0  0  0  0
   -1.6639    1.7019   -0.5684 H   0  0  0  0  0  0  0  0  0  0  0  0
  1  2  2  0
  2  3  1  0
  3  4  3  0
  4  5  1  0
  5  6  1  0
  6  7  1  0
  7  8  2  0
  8  9  1  0
  9 10  1  0
 10  2  1  0
 10  5  2  0
  6 11  1  0
  7 12  1  0
  9 13  1  0
M  END
>  <Energy>  (1) 
149.0188915144098

>  <Real charge>  (1) 
0

>  <Mult>  (1) 
1

>  <SMILES>  (1) 
O=c1c#cc2[nH]cn[nH]c1=2

$$$$
