aryne_28 17
     RDKit          3D

 12 13  0  0  0  0  0  0  0  0999 V2000
    2.4013   -0.3338   -0.1210 C   0  0  0  0  0  0  0  0  0  0  0  0
    1.3590   -1.2858    0.2212 N   0  0  0  0  0  0  0  0  0  0  0  0
    0.0621   -0.6749    0.0081 N   0  0  0  0  0  0  0  0  0  0  0  0
   -0.9808   -1.4989    0.3037 N   0  0  0  0  0  0  0  0  0  0  0  0
   -2.1425   -1.0434    0.4008 N   0  0  0  0  0  0  0  0  0  0  0  0
   -2.4307    0.3094    0.2150 N   0  0  0  0  0  0  0  0  0  0  0  0
   -1.4098    1.0911    0.1147 C   0  0  0  0  0  0  0  0  0  0  0  0
   -0.0867    0.7543    0.1389 N   0  0  0  0  0  0  0  0  0  0  0  0
    1.0593    1.8400   -0.5456 S   0  0  0  0  0  0  0  0  0  0  0  0
    2.3869    0.8223   -0.4061 C   0  0  0  0  0  0  0  0  0  0  0  0
    1.3753   -2.1516   -0.3156 H   0  0  0  0  0  0  0  0  0  0  0  0
   -1.5934    2.1713   -0.0142 H   0  0  0  0  0  0  0  0  0  0  0  0
  1  2  1  0
  2  3  1  0
  3  4  1  0
  4  5  2  0
  5  6  1  0
  6  7  2  0
  7  8  1  0
  8  9  1  0
  9 10  1  0
 10  1  3  0
  8  3  1  0
  2 11  1  0
  7 12  1  0
M  END
>  <Energy>  (1) 
72.74155424513906

>  <Real charge>  (1) 
0

>  <Mult>  (1) 
1

>  <SMILES>  (1) 
c1[nH]n2nnncn2sc#1

$$$$
