aryne_395 13
     RDKit          3D

 13 14  0  0  0  0  0  0  0  0999 V2000
    3.4508   -0.1675   -0.4935 O   0  0  0  0  0  0  0  0  0  0  0  0
    2.2692   -0.2454   -0.1751 C   0  0  0  0  0  0  0  0  0  0  0  0
    1.8562   -1.2957    0.6211 N   0  0  0  0  0  0  0  0  0  0  0  0
    0.6479   -1.4483    0.8958 N   0  0  0  0  0  0  0  0  0  0  0  0
   -0.2576   -0.5439    0.4425 N   0  0  0  0  0  0  0  0  0  0  0  0
   -1.6152   -0.8171    0.7438 C   0  0  0  0  0  0  0  0  0  0  0  0
   -2.0711   -1.7516    1.3867 O   0  0  0  0  0  0  0  0  0  0  0  0
   -2.4885    0.1732    0.1707 C   0  0  0  0  0  0  0  0  0  0  0  0
   -2.1166    1.1222   -0.4459 C   0  0  0  0  0  0  0  0  0  0  0  0
   -0.7644    1.5192   -0.7323 N   0  0  0  0  0  0  0  0  0  0  0  0
    0.1696    0.5721   -0.3117 C   0  0  0  0  0  0  0  0  0  0  0  0
    1.4112    0.7264   -0.6292 N   0  0  0  0  0  0  0  0  0  0  0  0
   -0.4914    2.1564   -1.4730 H   0  0  0  0  0  0  0  0  0  0  0  0
  1  2  2  0
  2  3  1  0
  3  4  2  0
  4  5  1  0
  5  6  1  0
  6  7  2  0
  6  8  1  0
  8  9  3  0
  9 10  1  0
 10 11  1  0
 11 12  2  0
 12  2  1  0
 11  5  1  0
 10 13  1  0
M  END
>  <Energy>  (1) 
19.23670166345013

>  <Real charge>  (1) 
0

>  <Mult>  (1) 
1

>  <SMILES>  (1) 
O=c1nnn2c(=O)c#c[nH]c2n1

$$$$
