aryne_1301 3
     RDKit          3D

 13 14  0  0  0  0  0  0  0  0999 V2000
   -2.3235   -0.6444   -1.1144 O   0  0  0  0  0  0  0  0  0  0  0  0
   -1.3838   -0.4536   -0.3404 C   0  0  0  0  0  0  0  0  0  0  0  0
   -1.5798   -0.6114    1.0189 N   0  0  0  0  0  0  0  0  0  0  0  0
   -0.6466   -0.4059    1.9928 N   0  0  0  0  0  0  0  0  0  0  0  0
    0.4872    0.0532    1.5651 C   0  0  0  0  0  0  0  0  0  0  0  0
    0.8515    0.3688    0.2780 N   0  0  0  0  0  0  0  0  0  0  0  0
    2.4967    0.6425   -0.1104 S   0  0  0  0  0  0  0  0  0  0  0  0
    2.2451    0.8658   -1.7512 C   0  0  0  0  0  0  0  0  0  0  0  0
    1.2110    0.6674   -2.3074 C   0  0  0  0  0  0  0  0  0  0  0  0
   -0.0386    0.2775   -2.1287 O   0  0  0  0  0  0  0  0  0  0  0  0
   -0.1000   -0.0911   -0.7310 N   0  0  0  0  0  0  0  0  0  0  0  0
   -2.5015   -0.9094    1.3212 H   0  0  0  0  0  0  0  0  0  0  0  0
    1.2823    0.2405    2.3074 H   0  0  0  0  0  0  0  0  0  0  0  0
  1  2  2  0
  2  3  1  0
  3  4  1  0
  4  5  2  0
  5  6  1  0
  6  7  1  0
  7  8  1  0
  8  9  3  0
  9 10  1  0
 10 11  1  0
 11  2  1  0
 11  6  1  0
  3 12  1  0
  5 13  1  0
M  END
>  <Energy>  (1) 
106.30528397800778

>  <Real charge>  (1) 
0

>  <Mult>  (1) 
1

>  <SMILES>  (1) 
O=c1[nH]ncn2sc#con12

$$$$
