aryne_23 2
     RDKit          3D

 13 14  0  0  0  0  0  0  0  0999 V2000
   -1.9009   -2.1982    1.1790 O   0  0  0  0  0  0  0  0  0  0  0  0
   -1.6215   -1.1252    0.6635 C   0  0  0  0  0  0  0  0  0  0  0  0
   -2.6505   -0.1782    0.3267 C   0  0  0  0  0  0  0  0  0  0  0  0
   -2.3823    0.8693   -0.1761 C   0  0  0  0  0  0  0  0  0  0  0  0
   -1.2280    1.4400   -0.5434 N   0  0  0  0  0  0  0  0  0  0  0  0
   -0.2134    0.6487   -0.2762 C   0  0  0  0  0  0  0  0  0  0  0  0
    1.1585    1.0543   -0.5883 C   0  0  0  0  0  0  0  0  0  0  0  0
    2.1044    0.1726   -0.2736 C   0  0  0  0  0  0  0  0  0  0  0  0
    1.8730   -1.0423    0.3022 N   0  0  0  0  0  0  0  0  0  0  0  0
    0.7186   -1.4330    0.5873 N   0  0  0  0  0  0  0  0  0  0  0  0
   -0.3511   -0.6230    0.3168 N   0  0  0  0  0  0  0  0  0  0  0  0
    1.3459    2.0153   -1.0441 H   0  0  0  0  0  0  0  0  0  0  0  0
    3.1474    0.3995   -0.4737 H   0  0  0  0  0  0  0  0  0  0  0  0
  1  2  2  0
  2  3  1  0
  3  4  3  0
  4  5  1  0
  5  6  2  0
  6  7  1  0
  7  8  2  0
  8  9  1  0
  9 10  2  0
 10 11  1  0
 11  2  1  0
 11  6  1  0
  7 12  1  0
  8 13  1  0
M  END
>  <Energy>  (1) 
44.87718289158834

>  <Real charge>  (1) 
0

>  <Mult>  (1) 
1

>  <SMILES>  (1) 
O=c1c#cnc2ccnnn12

$$$$
