aryne_349 10
     RDKit          3D

 13 14  0  0  0  0  0  0  0  0999 V2000
    2.8031    1.5400    0.4280 O   0  0  0  0  0  0  0  0  0  0  0  0
    1.7672    0.9290    0.3402 C   0  0  0  0  0  0  0  0  0  0  0  0
    1.1991   -0.0420    1.3607 C   0  0  0  0  0  0  0  0  0  0  0  0
    1.6890   -0.3577    2.4184 O   0  0  0  0  0  0  0  0  0  0  0  0
   -0.0642   -0.5022    0.7748 C   0  0  0  0  0  0  0  0  0  0  0  0
   -1.0155   -1.4089    1.2751 C   0  0  0  0  0  0  0  0  0  0  0  0
   -1.9619   -1.5975    0.5737 C   0  0  0  0  0  0  0  0  0  0  0  0
   -2.4178   -1.1884   -0.6044 O   0  0  0  0  0  0  0  0  0  0  0  0
   -1.5521   -0.2731   -1.2110 C   0  0  0  0  0  0  0  0  0  0  0  0
   -1.7935    0.2215   -2.3019 O   0  0  0  0  0  0  0  0  0  0  0  0
   -0.3110    0.0587   -0.4333 C   0  0  0  0  0  0  0  0  0  0  0  0
    0.7717    0.9763   -0.8104 C   0  0  0  0  0  0  0  0  0  0  0  0
    0.8860    1.6443   -1.8100 O   0  0  0  0  0  0  0  0  0  0  0  0
  1  2  2  0
  2  3  1  0
  3  4  2  0
  3  5  1  0
  5  6  1  0
  6  7  3  0
  7  8  1  0
  8  9  1  0
  9 10  2  0
  9 11  1  0
 11 12  1  0
 12 13  2  0
 12  2  1  0
 11  5  2  0
M  END
>  <Energy>  (1) 
78.36712452698632

>  <Real charge>  (1) 
0

>  <Mult>  (1) 
1

>  <SMILES>  (1) 
O=c1c(=O)c2c#coc(=O)c2c1=O

$$$$
