aryne_15 7
     RDKit          3D

 11 12  0  0  0  0  0  0  0  0999 V2000
    0.3174    2.3306   -0.5915 O   0  0  0  0  0  0  0  0  0  0  0  0
    0.6191    1.1436   -0.6117 C   0  0  0  0  0  0  0  0  0  0  0  0
    2.0742    0.5595   -1.5282 S   0  0  0  0  0  0  0  0  0  0  0  0
    1.8859   -1.0715   -1.1377 C   0  0  0  0  0  0  0  0  0  0  0  0
    1.0929   -1.6856   -0.4897 C   0  0  0  0  0  0  0  0  0  0  0  0
   -0.0086   -1.1250    0.1852 C   0  0  0  0  0  0  0  0  0  0  0  0
   -0.9396   -1.6762    0.9189 N   0  0  0  0  0  0  0  0  0  0  0  0
   -1.7756   -0.6550    1.3362 N   0  0  0  0  0  0  0  0  0  0  0  0
   -1.3206    0.4776    0.8401 C   0  0  0  0  0  0  0  0  0  0  0  0
   -0.1977    0.2405    0.0988 N   0  0  0  0  0  0  0  0  0  0  0  0
   -1.7475    1.4614    0.9795 H   0  0  0  0  0  0  0  0  0  0  0  0
  1  2  2  0
  2  3  1  0
  3  4  1  0
  4  5  3  0
  5  6  1  0
  6  7  2  0
  7  8  1  0
  8  9  2  0
  9 10  1  0
 10  2  1  0
 10  6  1  0
  9 11  1  0
M  END
>  <Energy>  (1) 
45.350617162044685

>  <Real charge>  (1) 
0

>  <Mult>  (1) 
1

>  <SMILES>  (1) 
O=c1sc#cc2nncn12

$$$$
