aryne_8 1
     RDKit          3D

 14 15  0  0  0  0  0  0  0  0999 V2000
    2.9265    0.4265    1.7595 O   0  0  0  0  0  0  0  0  0  0  0  0
    1.8504    0.4165    1.1722 C   0  0  0  0  0  0  0  0  0  0  0  0
    1.0334    1.5270    1.1812 N   0  0  0  0  0  0  0  0  0  0  0  0
   -0.0732    1.4174    0.5368 C   0  0  0  0  0  0  0  0  0  0  0  0
   -0.5922    0.3657   -0.1722 N   0  0  0  0  0  0  0  0  0  0  0  0
   -1.8227    0.2699   -0.8780 C   0  0  0  0  0  0  0  0  0  0  0  0
   -2.3042   -0.7467   -1.5525 N   0  0  0  0  0  0  0  0  0  0  0  0
   -1.4264   -1.7582   -1.4882 C   0  0  0  0  0  0  0  0  0  0  0  0
   -0.3684   -1.8173   -0.9388 C   0  0  0  0  0  0  0  0  0  0  0  0
    0.2451   -0.8555   -0.2151 N   0  0  0  0  0  0  0  0  0  0  0  0
    1.4690   -0.8847    0.4363 C   0  0  0  0  0  0  0  0  0  0  0  0
    2.2178   -1.8555    0.4473 O   0  0  0  0  0  0  0  0  0  0  0  0
   -0.7479    2.2912    0.5266 H   0  0  0  0  0  0  0  0  0  0  0  0
   -2.4073    1.2037   -0.8151 H   0  0  0  0  0  0  0  0  0  0  0  0
  1  2  2  0
  2  3  1  0
  3  4  2  0
  4  5  1  0
  5  6  1  0
  6  7  2  0
  7  8  1  0
  8  9  3  0
  9 10  1  0
 10 11  1  0
 11 12  2  0
 11  2  1  0
 10  5  1  0
  4 13  1  0
  6 14  1  0
M  END
>  <Energy>  (1) 
126.1159955302416

>  <Real charge>  (1) 
0

>  <Mult>  (1) 
1

>  <SMILES>  (1) 
O=c1ncn2cnc#cn2c1=O

$$$$
