aryne_1945 35
     RDKit          3D

 14 15  0  0  0  0  0  0  0  0999 V2000
   -2.4969    0.1068    0.2708 C   0  0  0  0  0  0  0  0  0  0  0  0
   -1.5272    1.1194    0.5396 C   0  0  0  0  0  0  0  0  0  0  0  0
   -0.2718    0.6999    0.2737 C   0  0  0  0  0  0  0  0  0  0  0  0
    1.0265    1.3070    0.3679 C   0  0  0  0  0  0  0  0  0  0  0  0
    1.9072    0.3703   -0.0466 C   0  0  0  0  0  0  0  0  0  0  0  0
    1.3233   -0.8491   -0.4247 N   0  0  0  0  0  0  0  0  0  0  0  0
    0.0033   -0.8035   -0.2853 C   0  0  0  0  0  0  0  0  0  0  0  0
   -1.0204   -1.6329   -0.4841 N   0  0  0  0  0  4  0  0  0  0  0  0
   -2.2992   -1.0007   -0.1405 C   0  0  0  0  0  0  0  0  0  0  0  0
   -1.7911    2.1012    0.9125 H   0  0  0  0  0  0  0  0  0  0  0  0
    1.2485    2.3077    0.7022 H   0  0  0  0  0  0  0  0  0  0  0  0
    2.9832    0.5029   -0.0999 H   0  0  0  0  0  0  0  0  0  0  0  0
    1.8404   -1.6520   -0.7577 H   0  0  0  0  0  0  0  0  0  0  0  0
   -0.9258   -2.5773   -0.8279 H   0  0  0  0  0  0  0  0  0  0  0  0
  1  2  1  0
  2  3  2  0
  3  4  1  0
  4  5  2  0
  5  6  1  0
  6  7  1  0
  7  8  2  0
  8  9  1  0
  9  1  3  0
  7  3  1  0
  2 10  1  0
  4 11  1  0
  5 12  1  0
  6 13  1  0
  8 14  1  0
M  CHG  1   8   1
M  END
>  <Energy>  (1) 
84.33016040678595

>  <Real charge>  (1) 
1

>  <Mult>  (1) 
1

>  <SMILES>  (1) 
c1cc2cc[nH]c2[nH+]c#1

$$$$
