aryne_4 6
     RDKit          3D

 13 14  0  0  0  0  0  0  0  0999 V2000
    3.9225    1.2646    1.0449 O   0  0  0  0  0  0  0  0  0  0  0  0
    2.8380    0.8789    0.6401 C   0  0  0  0  0  0  0  0  0  0  0  0
    2.6900   -0.1638   -0.3236 C   0  0  0  0  0  0  0  0  0  0  0  0
    1.7174   -0.6499   -0.8132 C   0  0  0  0  0  0  0  0  0  0  0  0
    0.3408   -0.3855   -0.6331 C   0  0  0  0  0  0  0  0  0  0  0  0
   -0.8504   -1.2698   -1.5119 S   0  0  0  0  0  0  0  0  0  0  0  0
   -2.1426   -1.2467   -0.3695 C   0  0  0  0  0  0  0  0  0  0  0  0
   -2.8968   -2.1519   -0.0790 O   0  0  0  0  0  0  0  0  0  0  0  0
   -2.2677    0.1514    0.1646 C   0  0  0  0  0  0  0  0  0  0  0  0
   -1.3105    0.9772    0.4647 N   0  0  0  0  0  0  0  0  0  0  0  0
    0.0025    0.5971    0.2515 C   0  0  0  0  0  0  0  0  0  0  0  0
    1.2679    1.5361    1.1769 S   0  0  0  0  0  0  0  0  0  0  0  0
   -3.3110    0.4625    0.3366 H   0  0  0  0  0  0  0  0  0  0  0  0
  1  2  2  0
  2  3  1  0
  3  4  3  0
  4  5  1  0
  5  6  1  0
  6  7  1  0
  7  8  2  0
  7  9  1  0
  9 10  2  0
 10 11  1  0
 11 12  1  0
 12  2  1  0
 11  5  2  0
  9 13  1  0
M  END
>  <Energy>  (1) 
106.80780659030455

>  <Real charge>  (1) 
0

>  <Mult>  (1) 
1

>  <SMILES>  (1) 
O=c1c#cc2sc(=O)cnc2s1

$$$$
