aryne_7 1
     RDKit          3D

 11 12  0  0  0  0  0  0  0  0999 V2000
    2.9265   -0.4040   -0.5104 O   0  0  0  0  0  0  0  0  0  0  0  0
    1.8042   -0.1762   -0.0872 C   0  0  0  0  0  0  0  0  0  0  0  0
    0.7024   -0.9589   -0.2818 N   0  0  0  0  0  0  0  0  0  0  0  0
   -0.3922   -0.6424    0.5065 N   0  0  0  0  0  0  0  0  0  0  0  0
   -1.6826   -1.0843   -0.1192 O   0  0  0  0  0  0  0  0  0  0  0  0
   -2.2599    0.0356   -0.5066 C   0  0  0  0  0  0  0  0  0  0  0  0
   -2.0075    1.1910   -0.3904 C   0  0  0  0  0  0  0  0  0  0  0  0
   -1.0328    1.8752    0.1740 O   0  0  0  0  0  0  0  0  0  0  0  0
   -0.2639    0.8479    0.9604 N   0  0  0  0  0  0  0  0  0  0  0  0
    1.3687    1.2133    0.8854 S   0  0  0  0  0  0  0  0  0  0  0  0
    0.8371   -1.8973   -0.6306 H   0  0  0  0  0  0  0  0  0  0  0  0
  1  2  2  0
  2  3  1  0
  3  4  1  0
  4  5  1  0
  5  6  1  0
  6  7  3  0
  7  8  1  0
  8  9  1  0
  9 10  1  0
 10  2  1  0
  9  4  1  0
  3 11  1  0
M  END
>  <Energy>  (1) 
59.487458406940846

>  <Real charge>  (1) 
0

>  <Mult>  (1) 
1

>  <SMILES>  (1) 
O=c1[nH]n2oc#con2s1

$$$$
aryne_7 22
     RDKit          3D

 11 12  0  0  0  0  0  0  0  0999 V2000
    1.2164    1.0665   -2.5464 O   0  0  0  0  0  0  0  0  0  0  0  0
    0.9177    0.5545   -1.4791 C   0  0  0  0  0  0  0  0  0  0  0  0
    0.0545   -0.4883   -1.3064 N   0  0  0  0  0  0  0  0  0  0  0  0
   -0.2468   -0.8509   -0.0005 N   0  0  0  0  0  0  0  0  0  0  0  0
   -1.6976   -0.5696    0.2835 O   0  0  0  0  0  0  0  0  0  0  0  0
   -1.7114   -0.1278    1.5238 C   0  0  0  0  0  0  0  0  0  0  0  0
   -0.8805    0.1827    2.3141 C   0  0  0  0  0  0  0  0  0  0  0  0
    0.4366    0.2260    2.3085 O   0  0  0  0  0  0  0  0  0  0  0  0
    0.8231   -0.1821    0.9190 N   0  0  0  0  0  0  0  0  0  0  0  0
    1.5314    1.0666    0.0768 S   0  0  0  0  0  0  0  0  0  0  0  0
   -0.4434   -0.8777   -2.0933 H   0  0  0  0  0  0  0  0  0  0  0  0
  1  2  2  0
  2  3  1  0
  3  4  1  0
  4  5  1  0
  5  6  1  0
  6  7  3  0
  7  8  1  0
  8  9  1  0
  9 10  1  0
 10  2  1  0
  9  4  1  0
  3 11  1  0
M  END
>  <Energy>  (2) 
60.01653695901089

>  <Real charge>  (2) 
0

>  <Mult>  (2) 
1

>  <SMILES>  (2) 
O=c1[nH]n2oc#con2s1

$$$$
aryne_7 3
     RDKit          3D

 11 12  0  0  0  0  0  0  0  0999 V2000
    2.3156    2.1290   -0.2451 O   0  0  0  0  0  0  0  0  0  0  0  0
    1.3409    1.4025   -0.1401 C   0  0  0  0  0  0  0  0  0  0  0  0
    1.3462    0.0619    0.1845 N   0  0  0  0  0  0  0  0  0  0  0  0
    0.1464   -0.5416   -0.1332 N   0  0  0  0  0  0  0  0  0  0  0  0
   -0.1168   -1.8637    0.5139 O   0  0  0  0  0  0  0  0  0  0  0  0
   -1.4305   -1.9904    0.3205 C   0  0  0  0  0  0  0  0  0  0  0  0
   -2.2864   -1.2227   -0.0100 C   0  0  0  0  0  0  0  0  0  0  0  0
   -2.2749    0.0726   -0.3289 O   0  0  0  0  0  0  0  0  0  0  0  0
   -0.9251    0.4808    0.1640 N   0  0  0  0  0  0  0  0  0  0  0  0
   -0.3363    1.9078   -0.4253 S   0  0  0  0  0  0  0  0  0  0  0  0
    2.2208   -0.4363    0.0996 H   0  0  0  0  0  0  0  0  0  0  0  0
  1  2  2  0
  2  3  1  0
  3  4  1  0
  4  5  1  0
  5  6  1  0
  6  7  3  0
  7  8  1  0
  8  9  1  0
  9 10  1  0
 10  2  1  0
  9  4  1  0
  3 11  1  0
M  END
>  <Energy>  (3) 
64.34737269927106

>  <Real charge>  (3) 
0

>  <Mult>  (3) 
1

>  <SMILES>  (3) 
O=c1[nH]n2oc#con2s1

$$$$
