aryne_3 1
     RDKit          3D

 13 14  0  0  0  0  0  0  0  0999 V2000
   -3.0327    0.7406    0.2911 O   0  0  0  0  0  0  0  0  0  0  0  0
   -1.8863    0.3430    0.1726 C   0  0  0  0  0  0  0  0  0  0  0  0
   -1.6512   -1.1165    0.0493 C   0  0  0  0  0  0  0  0  0  0  0  0
   -0.4686   -1.6166   -0.0794 N   0  0  0  0  0  0  0  0  0  0  0  0
    0.6443   -0.7963   -0.1078 C   0  0  0  0  0  0  0  0  0  0  0  0
    1.8511   -1.5507   -0.2566 O   0  0  0  0  0  0  0  0  0  0  0  0
    2.8627   -0.7018   -0.2750 C   0  0  0  0  0  0  0  0  0  0  0  0
    3.1427    0.4532   -0.2139 C   0  0  0  0  0  0  0  0  0  0  0  0
    2.0227    1.6830   -0.0377 S   0  0  0  0  0  0  0  0  0  0  0  0
    0.6131    0.5767   -0.0066 C   0  0  0  0  0  0  0  0  0  0  0  0
   -0.6966    1.2636    0.1454 C   0  0  0  0  0  0  0  0  0  0  0  0
   -0.8496    2.4716    0.2442 O   0  0  0  0  0  0  0  0  0  0  0  0
   -2.5517   -1.7497    0.0744 H   0  0  0  0  0  0  0  0  0  0  0  0
  1  2  2  0
  2  3  1  0
  3  4  2  0
  4  5  1  0
  5  6  1  0
  6  7  1  0
  7  8  3  0
  8  9  1  0
  9 10  1  0
 10 11  1  0
 11 12  2  0
 11  2  1  0
 10  5  2  0
  3 13  1  0
M  END
>  <Energy>  (1) 
108.34653435951603

>  <Real charge>  (1) 
0

>  <Mult>  (1) 
1

>  <SMILES>  (1) 
O=c1cnc2oc#csc=2c1=O

$$$$
