aryne_303 7
     RDKit          3D

 12 13  0  0  0  0  0  0  0  0999 V2000
    3.1190    0.4626    0.1755 O   0  0  0  0  0  0  0  0  0  0  0  0
    2.0514   -0.0644    0.4136 C   0  0  0  0  0  0  0  0  0  0  0  0
    1.1642   -1.1867   -0.5787 S   0  0  0  0  0  0  0  0  0  0  0  0
   -0.1126   -0.1801   -0.9874 N   0  0  0  0  0  0  0  0  0  0  0  0
   -0.9048   -0.8257   -2.0934 O   0  0  0  0  0  0  0  0  0  0  0  0
   -2.1158   -0.3228   -1.9443 C   0  0  0  0  0  0  0  0  0  0  0  0
   -2.6556    0.3168   -1.0993 C   0  0  0  0  0  0  0  0  0  0  0  0
   -2.2812    0.8217    0.0611 O   0  0  0  0  0  0  0  0  0  0  0  0
   -0.9431    0.1788    0.3139 N   0  0  0  0  0  0  0  0  0  0  0  0
   -0.0361    1.1881    1.2984 S   0  0  0  0  0  0  0  0  0  0  0  0
    1.2397    0.0685    1.6857 C   0  0  0  0  0  0  0  0  0  0  0  0
    1.4748   -0.4568    2.7549 O   0  0  0  0  0  0  0  0  0  0  0  0
  1  2  2  0
  2  3  1  0
  3  4  1  0
  4  5  1  0
  5  6  1  0
  6  7  3  0
  7  8  1  0
  8  9  1  0
  9 10  1  0
 10 11  1  0
 11 12  2  0
 11  2  1  0
  9  4  1  0
M  END
>  <Energy>  (1) 
137.46401140168905

>  <Real charge>  (1) 
0

>  <Mult>  (1) 
1

>  <SMILES>  (1) 
O=c1sn2oc#con2sc1=O

$$$$
