aryne_466 14
     RDKit          3D

 12 13  0  0  0  0  0  0  0  0999 V2000
   -2.2625   -0.2410    1.3944 O   0  0  0  0  0  0  0  0  0  0  0  0
   -1.4041   -0.1727    0.5454 C   0  0  0  0  0  0  0  0  0  0  0  0
   -1.5220   -0.2879   -0.7970 N   0  0  0  0  0  0  0  0  0  0  0  0
   -0.3050   -0.1482   -1.4082 C   0  0  0  0  0  0  0  0  0  0  0  0
   -0.1498   -0.2125   -2.6188 O   0  0  0  0  0  0  0  0  0  0  0  0
    0.6660    0.0673   -0.4612 N   0  0  0  0  0  0  0  0  0  0  0  0
    1.9934    0.2650   -0.5018 C   0  0  0  0  0  0  0  0  0  0  0  0
    2.4921    0.4182    0.5709 C   0  0  0  0  0  0  0  0  0  0  0  0
    2.1369    0.4574    1.8532 O   0  0  0  0  0  0  0  0  0  0  0  0
    0.6748    0.2418    1.9284 N   0  0  0  0  0  0  0  0  0  0  0  0
    0.0651    0.0666    0.7823 C   0  0  0  0  0  0  0  0  0  0  0  0
   -2.3849   -0.4539   -1.2876 H   0  0  0  0  0  0  0  0  0  0  0  0
  1  2  2  0
  2  3  1  0
  3  4  1  0
  4  5  2  0
  4  6  1  0
  6  7  1  0
  7  8  3  0
  8  9  1  0
  9 10  1  0
 10 11  2  0
 11  2  1  0
 11  6  1  0
  3 12  1  0
M  END
>  <Energy>  (1) 
45.40241077245223

>  <Real charge>  (1) 
0

>  <Mult>  (1) 
1

>  <SMILES>  (1) 
O=c1[nH]c(=O)n2c#conc1-2

$$$$
