aryne_36 46
     RDKit          3D

 14 15  0  0  0  0  0  0  0  0999 V2000
   -0.3135    2.6093    1.2341 O   0  0  0  0  0  0  0  0  0  0  0  0
    0.3119    1.6474    0.7886 C   0  0  0  0  0  0  0  0  0  0  0  0
    2.0355    1.7984    0.4279 S   0  0  0  0  0  0  0  0  0  0  0  0
    2.5885    0.2324    0.1960 N   0  0  0  0  0  0  0  0  0  0  0  0
    1.7217   -0.6332   -0.2122 C   0  0  0  0  0  0  0  0  0  0  0  0
    0.3621   -0.5089   -0.4266 N   0  0  0  0  0  0  0  0  0  0  0  0
   -0.3640   -1.6042   -0.9912 N   0  0  0  0  0  0  0  0  0  0  0  0
   -1.7797   -1.5038   -0.6689 C   0  0  0  0  0  0  0  0  0  0  0  0
   -2.3333   -0.7289    0.0444 C   0  0  0  0  0  0  0  0  0  0  0  0
   -1.7309    0.3371    0.8189 N   0  0  0  0  0  0  0  0  0  0  0  0
   -0.2799    0.4041    0.5399 N   0  0  0  0  0  0  0  0  0  0  0  0
    2.0862   -1.6457   -0.4580 H   0  0  0  0  0  0  0  0  0  0  0  0
   -0.1782   -1.6778   -1.9922 H   0  0  0  0  0  0  0  0  0  0  0  0
   -2.1265    1.2737    0.6995 H   0  0  0  0  0  0  0  0  0  0  0  0
  1  2  2  0
  2  3  1  0
  3  4  1  0
  4  5  2  0
  5  6  1  0
  6  7  1  0
  7  8  1  0
  8  9  3  0
  9 10  1  0
 10 11  1  0
 11  2  1  0
 11  6  1  0
  5 12  1  0
  7 13  1  0
 10 14  1  0
M  END
>  <Energy>  (1) 
166.75270712268167

>  <Real charge>  (1) 
0

>  <Mult>  (1) 
1

>  <SMILES>  (1) 
O=c1sncn2[nH]c#c[nH]n12

$$$$
aryne_36 54
     RDKit          3D

 14 15  0  0  0  0  0  0  0  0999 V2000
   -2.4954   -0.4800   -1.3688 O   0  0  0  0  0  0  0  0  0  0  0  0
   -1.3052   -0.6743   -1.1169 C   0  0  0  0  0  0  0  0  0  0  0  0
   -0.5223   -2.1504   -1.6759 S   0  0  0  0  0  0  0  0  0  0  0  0
    1.0693   -2.0744   -1.1810 N   0  0  0  0  0  0  0  0  0  0  0  0
    1.3768   -1.2103   -0.2762 C   0  0  0  0  0  0  0  0  0  0  0  0
    0.6385   -0.2264    0.3490 N   0  0  0  0  0  0  0  0  0  0  0  0
    1.2522    0.6035    1.3428 N   0  0  0  0  0  0  0  0  0  0  0  0
    0.3065    1.6179    1.7945 C   0  0  0  0  0  0  0  0  0  0  0  0
   -0.7149    1.9547    1.2857 C   0  0  0  0  0  0  0  0  0  0  0  0
   -1.3049    1.4340    0.0676 N   0  0  0  0  0  0  0  0  0  0  0  0
   -0.5260    0.2564   -0.4151 N   0  0  0  0  0  0  0  0  0  0  0  0
    2.4139   -1.2370    0.1011 H   0  0  0  0  0  0  0  0  0  0  0  0
    2.1022    1.0292    0.9683 H   0  0  0  0  0  0  0  0  0  0  0  0
   -2.2905    1.1573    0.1250 H   0  0  0  0  0  0  0  0  0  0  0  0
  1  2  2  0
  2  3  1  0
  3  4  1  0
  4  5  2  0
  5  6  1  0
  6  7  1  0
  7  8  1  0
  8  9  3  0
  9 10  1  0
 10 11  1  0
 11  2  1  0
 11  6  1  0
  5 12  1  0
  7 13  1  0
 10 14  1  0
M  END
>  <Energy>  (2) 
167.1853610748701

>  <Real charge>  (2) 
0

>  <Mult>  (2) 
1

>  <SMILES>  (2) 
O=c1sncn2[nH]c#c[nH]n12

$$$$
