aryne_1777 4
     RDKit          3D

 13 14  0  0  0  0  0  0  0  0999 V2000
    0.5893    0.5301    3.9818 O   0  0  0  0  0  0  0  0  0  0  0  0
    0.5090    0.5404    2.7652 C   0  0  0  0  0  0  0  0  0  0  0  0
    1.0594    1.5845    1.9522 C   0  0  0  0  0  0  0  0  0  0  0  0
    1.0150    1.6608    0.7626 C   0  0  0  0  0  0  0  0  0  0  0  0
    0.4056    0.7355   -0.1204 C   0  0  0  0  0  0  0  0  0  0  0  0
    0.4173    0.9999   -1.8273 S   0  0  0  0  0  0  0  0  0  0  0  0
   -0.8282   -0.0928   -2.3456 C   0  0  0  0  0  0  0  0  0  0  0  0
   -1.8427    0.1722   -2.9546 O   0  0  0  0  0  0  0  0  0  0  0  0
   -0.3645   -1.4632   -1.9002 C   0  0  0  0  0  0  0  0  0  0  0  0
    0.2717   -2.2651   -2.5502 O   0  0  0  0  0  0  0  0  0  0  0  0
   -0.9631   -1.6406   -0.2801 S   0  0  0  0  0  0  0  0  0  0  0  0
   -0.1540   -0.3268    0.5272 C   0  0  0  0  0  0  0  0  0  0  0  0
   -0.1149   -0.4348    1.9894 O   0  0  0  0  0  0  0  0  0  0  0  0
  1  2  2  0
  2  3  1  0
  3  4  3  0
  4  5  1  0
  5  6  1  0
  6  7  1  0
  7  8  2  0
  7  9  1  0
  9 10  2  0
  9 11  1  0
 11 12  1  0
 12 13  1  0
 13  2  1  0
 12  5  2  0
M  END
>  <Energy>  (1) 
130.13124082130366

>  <Real charge>  (1) 
0

>  <Mult>  (1) 
1

>  <SMILES>  (1) 
O=c1c#cc2sc(=O)c(=O)sc2o1

$$$$
