aryne_22 6
     RDKit          3D

 11 12  0  0  0  0  0  0  0  0999 V2000
    2.2980   -2.7233   -0.0196 O   0  0  0  0  0  0  0  0  0  0  0  0
    1.5060   -1.7954    0.0154 C   0  0  0  0  0  0  0  0  0  0  0  0
    1.8110   -0.5493    0.6583 C   0  0  0  0  0  0  0  0  0  0  0  0
    1.2240    0.4769    0.8228 C   0  0  0  0  0  0  0  0  0  0  0  0
   -0.0779    0.7128    0.3524 C   0  0  0  0  0  0  0  0  0  0  0  0
   -0.9627    1.7545    0.3935 C   0  0  0  0  0  0  0  0  0  0  0  0
   -2.1138    1.3849   -0.2591 N   0  0  0  0  0  0  0  0  0  0  0  0
   -1.9664    0.1379   -0.7054 N   0  0  0  0  0  0  0  0  0  0  0  0
   -0.7440   -0.2742   -0.3418 N   0  0  0  0  0  0  0  0  0  0  0  0
   -0.1197   -1.8571   -0.7179 S   0  0  0  0  0  0  0  0  0  0  0  0
   -0.8544    2.7323    0.8410 H   0  0  0  0  0  0  0  0  0  0  0  0
  1  2  2  0
  2  3  1  0
  3  4  3  0
  4  5  1  0
  5  6  2  0
  6  7  1  0
  7  8  2  0
  8  9  1  0
  9 10  1  0
 10  2  1  0
  9  5  1  0
  6 11  1  0
M  END
>  <Energy>  (1) 
26.15943128816535

>  <Real charge>  (1) 
0

>  <Mult>  (1) 
1

>  <SMILES>  (1) 
O=c1c#cc2cnnn2s1

$$$$
