aryne_187 9
     RDKit          3D

  9 10  0  0  0  0  0  0  0  0999 V2000
    1.6632    0.9252   -1.0122 C   0  0  0  0  0  0  0  0  0  0  0  0
    0.1094    1.5809   -1.0239 S   0  0  0  0  0  0  0  0  0  0  0  0
   -0.4685    0.4907    0.1951 N   0  0  0  0  0  0  0  0  0  0  0  0
   -1.5923    0.8387    0.8957 N   0  0  0  0  0  0  0  0  0  0  0  0
   -2.0354   -0.1223    1.5777 N   0  0  0  0  0  0  0  0  0  0  0  0
   -1.1365   -1.5176    1.3177 S   0  0  0  0  0  0  0  0  0  0  0  0
   -0.1396   -0.9000    0.1595 N   0  0  0  0  0  0  0  0  0  0  0  0
    1.4813   -1.2503    0.5117 S   0  0  0  0  0  0  0  0  0  0  0  0
    2.1184   -0.0452   -0.4850 C   0  0  0  0  0  0  0  0  0  0  0  0
  1  2  1  0
  2  3  1  0
  3  4  1  0
  4  5  2  0
  5  6  1  0
  6  7  1  0
  7  8  1  0
  8  9  1  0
  9  1  3  0
  7  3  1  0
M  END
>  <Energy>  (1) 
56.812348089575

>  <Real charge>  (1) 
0

>  <Mult>  (1) 
1

>  <SMILES>  (1) 
c1sn2nnsn2sc#1

$$$$
