aryne_18 9
     RDKit          3D

 14 15  0  0  0  0  0  0  0  0999 V2000
    3.0801   -1.1287    1.1550 O   0  0  0  0  0  0  0  0  0  0  0  0
    1.9819   -0.6112    0.9814 C   0  0  0  0  0  0  0  0  0  0  0  0
    1.2560   -0.8248   -0.2838 C   0  0  0  0  0  0  0  0  0  0  0  0
    0.0570   -0.2727   -0.5001 C   0  0  0  0  0  0  0  0  0  0  0  0
   -0.6348   -0.4760   -1.7052 N   0  0  0  0  0  0  0  0  0  0  0  0
   -1.8055    0.0627   -1.9172 C   0  0  0  0  0  0  0  0  0  0  0  0
   -2.2916    0.8547   -0.8283 C   0  0  0  0  0  0  0  0  0  0  0  0
   -1.7925    1.0919    0.2287 C   0  0  0  0  0  0  0  0  0  0  0  0
   -0.5311    0.5605    0.5585 C   0  0  0  0  0  0  0  0  0  0  0  0
    0.1300    0.7484    1.6971 C   0  0  0  0  0  0  0  0  0  0  0  0
    1.3899    0.1751    1.9384 O   0  0  0  0  0  0  0  0  0  0  0  0
    1.7414   -1.4475   -1.0230 H   0  0  0  0  0  0  0  0  0  0  0  0
   -2.3821   -0.0689   -2.8434 H   0  0  0  0  0  0  0  0  0  0  0  0
   -0.1986    1.3364    2.5420 H   0  0  0  0  0  0  0  0  0  0  0  0
  1  2  2  0
  2  3  1  0
  3  4  2  0
  4  5  1  0
  5  6  2  0
  6  7  1  0
  7  8  3  0
  8  9  1  0
  9 10  2  0
 10 11  1  0
 11  2  1  0
  9  4  1  0
  3 12  1  0
  6 13  1  0
 10 14  1  0
M  END
>  <Energy>  (1) 
82.0264007157942

>  <Real charge>  (1) 
0

>  <Mult>  (1) 
1

>  <SMILES>  (1) 
O=c1cc2ncc#cc2co1

$$$$
