aryne_1715 3
     RDKit          3D

 16 17  0  0  0  0  0  0  0  0999 V2000
    2.3212   -1.2732    0.5010 C   0  0  0  0  0  0  0  0  0  0  0  0
    2.6182    0.0597    0.9285 C   0  0  0  0  0  0  0  0  0  0  0  0
    1.6150    0.8680    0.7747 N   0  0  0  0  0  4  0  0  0  0  0  0
    0.2894    0.3932    0.1966 C   0  0  0  0  0  0  0  0  0  0  0  0
   -0.7706    1.2778    0.0414 C   0  0  0  0  0  0  0  0  0  0  0  0
   -1.9670    0.7893   -0.4949 C   0  0  0  0  0  0  0  0  0  0  0  0
   -2.0956   -0.5596   -0.8675 C   0  0  0  0  0  0  0  0  0  0  0  0
   -1.0331   -1.4538   -0.7139 C   0  0  0  0  0  0  0  0  0  0  0  0
    0.1522   -0.9749   -0.1837 C   0  0  0  0  0  0  0  0  0  0  0  0
    1.3258   -1.7468    0.0385 C   0  0  0  0  0  0  0  0  0  0  0  0
    3.5773    0.3919    1.3441 H   0  0  0  0  0  0  0  0  0  0  0  0
    1.6769    1.8517    1.0353 H   0  0  0  0  0  0  0  0  0  0  0  0
   -0.7065    2.3260    0.3184 H   0  0  0  0  0  0  0  0  0  0  0  0
   -2.8173    1.4589   -0.6291 H   0  0  0  0  0  0  0  0  0  0  0  0
   -3.0400   -0.9131   -1.2831 H   0  0  0  0  0  0  0  0  0  0  0  0
   -1.1460   -2.4951   -1.0063 H   0  0  0  0  0  0  0  0  0  0  0  0
  1  2  1  0
  2  3  2  0
  3  4  1  0
  4  5  2  0
  5  6  1  0
  6  7  2  0
  7  8  1  0
  8  9  2  0
  9 10  1  0
 10  1  3  0
  9  4  1  0
  2 11  1  0
  3 12  1  0
  5 13  1  0
  6 14  1  0
  7 15  1  0
  8 16  1  0
M  CHG  1   3   1
M  END
>  <Energy>  (1) 
92.8340311289402

>  <Real charge>  (1) 
1

>  <Mult>  (1) 
1

>  <SMILES>  (1) 
c1c[nH+]c2ccccc2c#1

$$$$
