aryne_275 1
     RDKit          3D

 13 14  0  0  0  0  0  0  0  0999 V2000
   -3.0188    0.5073   -0.5859 O   0  0  0  0  0  0  0  0  0  0  0  0
   -1.8916    0.1618   -0.2462 C   0  0  0  0  0  0  0  0  0  0  0  0
   -0.7739    0.5666   -0.9450 N   0  0  0  0  0  0  0  0  0  0  0  0
    0.5415    0.4853   -0.4817 N   0  0  0  0  0  0  0  0  0  0  0  0
    1.5056   -0.0615   -1.7854 S   0  0  0  0  0  0  0  0  0  0  0  0
    2.9485   -0.0857   -0.9229 C   0  0  0  0  0  0  0  0  0  0  0  0
    3.1946   -0.0345    0.2426 C   0  0  0  0  0  0  0  0  0  0  0  0
    2.2210    0.1126    1.6052 S   0  0  0  0  0  0  0  0  0  0  0  0
    0.7605   -0.2737    0.8068 N   0  0  0  0  0  0  0  0  0  0  0  0
   -0.4748   -0.0459    1.8937 S   0  0  0  0  0  0  0  0  0  0  0  0
   -1.7179   -0.7709    0.9418 C   0  0  0  0  0  0  0  0  0  0  0  0
   -2.3422   -1.7850    1.1728 O   0  0  0  0  0  0  0  0  0  0  0  0
   -0.9523    1.2236   -1.6959 H   0  0  0  0  0  0  0  0  0  0  0  0
  1  2  2  0
  2  3  1  0
  3  4  1  0
  4  5  1  0
  5  6  1  0
  6  7  3  0
  7  8  1  0
  8  9  1  0
  9 10  1  0
 10 11  1  0
 11 12  2  0
 11  2  1  0
  9  4  1  0
  3 13  1  0
M  END
>  <Energy>  (1) 
109.20029675469145

>  <Real charge>  (1) 
0

>  <Mult>  (1) 
1

>  <SMILES>  (1) 
O=c1[nH]n2sc#csn2sc1=O

$$$$
