aryne_1 9
     RDKit          3D

 11 12  0  0  0  0  0  0  0  0999 V2000
   -3.1855    0.5195   -0.1965 O   0  0  0  0  0  0  0  0  0  0  0  0
   -1.9847    0.2828   -0.1968 C   0  0  0  0  0  0  0  0  0  0  0  0
   -1.1835    0.6967    0.8436 N   0  0  0  0  0  0  0  0  0  0  0  0
    0.0584    0.4214    0.7876 C   0  0  0  0  0  0  0  0  0  0  0  0
    0.8821    0.8568    1.8752 C   0  0  0  0  0  0  0  0  0  0  0  0
    2.0228    0.5403    1.7081 C   0  0  0  0  0  0  0  0  0  0  0  0
    2.5571   -0.3154    0.3425 S   0  0  0  0  0  0  0  0  0  0  0  0
    0.8955   -0.2894   -0.2057 C   0  0  0  0  0  0  0  0  0  0  0  0
    0.3443   -0.7851   -1.3051 C   0  0  0  0  0  0  0  0  0  0  0  0
   -1.3493   -0.6189   -1.6096 S   0  0  0  0  0  0  0  0  0  0  0  0
    0.9428   -1.3087   -2.0433 H   0  0  0  0  0  0  0  0  0  0  0  0
  1  2  2  0
  2  3  1  0
  3  4  2  0
  4  5  1  0
  5  6  3  0
  6  7  1  0
  7  8  1  0
  8  9  2  0
  9 10  1  0
 10  2  1  0
  8  4  1  0
  9 11  1  0
M  END
>  <Energy>  (1) 
67.03665096182803

>  <Real charge>  (1) 
0

>  <Mult>  (1) 
1

>  <SMILES>  (1) 
O=c1nc2c#csc2cs1

$$$$
