aryne_202 23
     RDKit          3D

 13 14  0  0  0  0  0  0  0  0999 V2000
    2.4652    0.1969   -0.4112 C   0  0  0  0  0  0  0  0  0  0  0  0
    1.4158    1.1672   -0.1002 N   0  0  0  0  0  0  0  0  0  0  0  0
    0.3886    0.5271    0.6887 N   0  0  0  0  0  0  0  0  0  0  0  0
   -0.8549    1.1631    0.3710 N   0  0  0  0  0  0  0  0  0  0  0  0
   -1.7372    0.1773   -0.0516 C   0  0  0  0  0  0  0  0  0  0  0  0
   -1.1361   -1.0150   -0.1189 C   0  0  0  0  0  0  0  0  0  0  0  0
    0.1489   -0.8900    0.3390 N   0  0  0  0  0  0  0  0  0  0  0  0
    1.3369   -2.0622    0.1468 S   0  0  0  0  0  0  0  0  0  0  0  0
    2.5328   -0.9926   -0.3609 C   0  0  0  0  0  0  0  0  0  0  0  0
    0.9671    1.5421   -0.9343 H   0  0  0  0  0  0  0  0  0  0  0  0
   -1.2247    1.7190    1.1409 H   0  0  0  0  0  0  0  0  0  0  0  0
   -2.7618    0.4319   -0.2779 H   0  0  0  0  0  0  0  0  0  0  0  0
   -1.5405   -1.9648   -0.4314 H   0  0  0  0  0  0  0  0  0  0  0  0
  1  2  1  0
  2  3  1  0
  3  4  1  0
  4  5  1  0
  5  6  2  0
  6  7  1  0
  7  8  1  0
  8  9  1  0
  9  1  3  0
  7  3  1  0
  2 10  1  0
  4 11  1  0
  5 12  1  0
  6 13  1  0
M  END
>  <Energy>  (1) 
63.18558886824791

>  <Real charge>  (1) 
0

>  <Mult>  (1) 
1

>  <SMILES>  (1) 
c1[nH]n2[nH]ccn2sc#1

$$$$
aryne_202 11
     RDKit          3D

 13 14  0  0  0  0  0  0  0  0999 V2000
    2.1410    0.5496   -0.7507 C   0  0  0  0  0  0  0  0  0  0  0  0
    1.3660    0.9438    0.4202 N   0  0  0  0  0  0  0  0  0  0  0  0
    0.4700   -0.1261    0.8086 N   0  0  0  0  0  0  0  0  0  0  0  0
   -0.7509    0.4721    1.2589 N   0  0  0  0  0  0  0  0  0  0  0  0
   -1.7587    0.0785    0.3899 C   0  0  0  0  0  0  0  0  0  0  0  0
   -1.3076   -0.7978   -0.5124 C   0  0  0  0  0  0  0  0  0  0  0  0
    0.0273   -1.0367   -0.2886 N   0  0  0  0  0  0  0  0  0  0  0  0
    1.0283   -1.6566   -1.4995 S   0  0  0  0  0  0  0  0  0  0  0  0
    2.1006   -0.3647   -1.5135 C   0  0  0  0  0  0  0  0  0  0  0  0
    1.9506    1.1826    1.2201 H   0  0  0  0  0  0  0  0  0  0  0  0
   -0.6904    1.4843    1.3370 H   0  0  0  0  0  0  0  0  0  0  0  0
   -2.7404    0.5207    0.4671 H   0  0  0  0  0  0  0  0  0  0  0  0
   -1.8358   -1.2498   -1.3370 H   0  0  0  0  0  0  0  0  0  0  0  0
  1  2  1  0
  2  3  1  0
  3  4  1  0
  4  5  1  0
  5  6  2  0
  6  7  1  0
  7  8  1  0
  8  9  1  0
  9  1  3  0
  7  3  1  0
  2 10  1  0
  4 11  1  0
  5 12  1  0
  6 13  1  0
M  END
>  <Energy>  (2) 
64.67876001175449

>  <Real charge>  (2) 
0

>  <Mult>  (2) 
1

>  <SMILES>  (2) 
c1[nH]n2[nH]ccn2sc#1

$$$$
aryne_202 1
     RDKit          3D

 13 14  0  0  0  0  0  0  0  0999 V2000
    2.3187   -0.6800   -0.4271 C   0  0  0  0  0  0  0  0  0  0  0  0
    1.0435   -1.3829   -0.3778 N   0  0  0  0  0  0  0  0  0  0  0  0
    0.1223   -0.6852    0.4898 N   0  0  0  0  0  0  0  0  0  0  0  0
   -1.1994   -0.8741   -0.0292 N   0  0  0  0  0  0  0  0  0  0  0  0
   -1.7358    0.3800   -0.2872 C   0  0  0  0  0  0  0  0  0  0  0  0
   -0.8521    1.3492   -0.0299 C   0  0  0  0  0  0  0  0  0  0  0  0
    0.2841    0.7902    0.4962 N   0  0  0  0  0  0  0  0  0  0  0  0
    1.7466    1.6130    0.6215 S   0  0  0  0  0  0  0  0  0  0  0  0
    2.6744    0.4088   -0.0972 C   0  0  0  0  0  0  0  0  0  0  0  0
    1.1003   -2.3621   -0.1135 H   0  0  0  0  0  0  0  0  0  0  0  0
   -1.7993   -1.4389    0.5670 H   0  0  0  0  0  0  0  0  0  0  0  0
   -2.7463    0.4671   -0.6565 H   0  0  0  0  0  0  0  0  0  0  0  0
   -0.9569    2.4149   -0.1561 H   0  0  0  0  0  0  0  0  0  0  0  0
  1  2  1  0
  2  3  1  0
  3  4  1  0
  4  5  1  0
  5  6  2  0
  6  7  1  0
  7  8  1  0
  8  9  1  0
  9  1  3  0
  7  3  1  0
  2 10  1  0
  4 11  1  0
  5 12  1  0
  6 13  1  0
M  END
>  <Energy>  (3) 
65.79762888914948

>  <Real charge>  (3) 
0

>  <Mult>  (3) 
1

>  <SMILES>  (3) 
c1[nH]n2[nH]ccn2sc#1

$$$$
aryne_202 58
     RDKit          3D

 13 14  0  0  0  0  0  0  0  0999 V2000
    1.1921   -2.0702    0.4580 C   0  0  0  0  0  0  0  0  0  0  0  0
    0.9540   -0.8265    1.1947 N   0  0  0  0  0  0  0  0  0  0  0  0
    0.9668    0.2798    0.2532 N   0  0  0  0  0  0  0  0  0  0  0  0
    0.1686    1.3297    0.7751 N   0  0  0  0  0  0  0  0  0  0  0  0
   -0.9989    1.4072    0.0442 C   0  0  0  0  0  0  0  0  0  0  0  0
   -0.9305    0.6112   -1.0301 C   0  0  0  0  0  0  0  0  0  0  0  0
    0.2875   -0.0303   -1.0380 N   0  0  0  0  0  0  0  0  0  0  0  0
    0.5938   -1.4032   -1.9711 S   0  0  0  0  0  0  0  0  0  0  0  0
    1.0770   -2.3782   -0.6880 C   0  0  0  0  0  0  0  0  0  0  0  0
    0.0421   -0.8475    1.6454 H   0  0  0  0  0  0  0  0  0  0  0  0
    0.1319    1.4591    1.7793 H   0  0  0  0  0  0  0  0  0  0  0  0
   -1.8135    2.0353    0.3714 H   0  0  0  0  0  0  0  0  0  0  0  0
   -1.6709    0.4338   -1.7940 H   0  0  0  0  0  0  0  0  0  0  0  0
  1  2  1  0
  2  3  1  0
  3  4  1  0
  4  5  1  0
  5  6  2  0
  6  7  1  0
  7  8  1  0
  8  9  1  0
  9  1  3  0
  7  3  1  0
  2 10  1  0
  4 11  1  0
  5 12  1  0
  6 13  1  0
M  END
>  <Energy>  (4) 
66.97160980486579

>  <Real charge>  (4) 
0

>  <Mult>  (4) 
1

>  <SMILES>  (4) 
c1[nH]n2[nH]ccn2sc#1

$$$$
