aryne_12 8
     RDKit          3D

 13 14  0  0  0  0  0  0  0  0999 V2000
   -1.3319   -2.1649    1.9205 O   0  0  0  0  0  0  0  0  0  0  0  0
   -1.2748   -1.2693    1.0982 C   0  0  0  0  0  0  0  0  0  0  0  0
   -2.4600   -0.6937    0.5012 C   0  0  0  0  0  0  0  0  0  0  0  0
   -2.4857    0.1854   -0.3104 C   0  0  0  0  0  0  0  0  0  0  0  0
   -1.3448    0.8718   -0.8790 C   0  0  0  0  0  0  0  0  0  0  0  0
   -1.4759    1.7566   -1.7018 O   0  0  0  0  0  0  0  0  0  0  0  0
   -0.0505    0.3596   -0.3343 C   0  0  0  0  0  0  0  0  0  0  0  0
    1.3064    0.7884   -0.6533 C   0  0  0  0  0  0  0  0  0  0  0  0
    1.5749    1.6693   -1.4501 O   0  0  0  0  0  0  0  0  0  0  0  0
    2.4043    0.0349    0.1029 C   0  0  0  0  0  0  0  0  0  0  0  0
    3.6016    0.1890    0.0281 O   0  0  0  0  0  0  0  0  0  0  0  0
    1.5438   -1.1007    1.1011 S   0  0  0  0  0  0  0  0  0  0  0  0
   -0.0074   -0.6263    0.5768 C   0  0  0  0  0  0  0  0  0  0  0  0
  1  2  2  0
  2  3  1  0
  3  4  3  0
  4  5  1  0
  5  6  2  0
  5  7  1  0
  7  8  1  0
  8  9  2  0
  8 10  1  0
 10 11  2  0
 10 12  1  0
 12 13  1  0
 13  2  1  0
 13  7  2  0
M  END
>  <Energy>  (1) 
74.20150786624812

>  <Real charge>  (1) 
0

>  <Mult>  (1) 
1

>  <SMILES>  (1) 
O=c1c#cc(=O)c2c(=O)c(=O)sc1=2

$$$$
