aryne_290 4
     RDKit          3D

 11 12  0  0  0  0  0  0  0  0999 V2000
    3.0818    0.8534    0.0563 O   0  0  0  0  0  0  0  0  0  0  0  0
    1.9744    0.3443   -0.0784 C   0  0  0  0  0  0  0  0  0  0  0  0
    1.8676   -1.0447   -0.0548 N   0  0  0  0  0  0  0  0  0  0  0  0
    0.7644   -1.6096    0.1444 N   0  0  0  0  0  0  0  0  0  0  0  0
   -0.2635   -0.7652    0.3385 N   0  0  0  0  0  0  0  0  0  0  0  0
   -1.6218   -1.2437    0.2950 C   0  0  0  0  0  0  0  0  0  0  0  0
   -2.5093   -0.4853    0.0595 C   0  0  0  0  0  0  0  0  0  0  0  0
   -2.5589    0.8260   -0.2045 N   0  0  0  0  0  0  0  0  0  0  0  0
   -1.3968    1.3693   -0.2354 N   0  0  0  0  0  0  0  0  0  0  0  0
   -0.2315    0.5792   -0.0470 C   0  0  0  0  0  0  0  0  0  0  0  0
    0.8935    1.1763   -0.2735 N   0  0  0  0  0  0  0  0  0  0  0  0
  1  2  2  0
  2  3  1  0
  3  4  2  0
  4  5  1  0
  5  6  1  0
  6  7  3  0
  7  8  1  0
  8  9  2  0
  9 10  1  0
 10 11  2  0
 11  2  1  0
 10  5  1  0
M  END
>  <Energy>  (1) 
62.88256887830032

>  <Real charge>  (1) 
0

>  <Mult>  (1) 
1

>  <SMILES>  (1) 
O=c1nnn2c#cnnc2n1

$$$$
