aryne_91 4
     RDKit          3D

 13 14  0  0  0  0  0  0  0  0999 V2000
   -0.9039    0.8588   -2.6027 O   0  0  0  0  0  0  0  0  0  0  0  0
   -1.0683    0.3382   -1.5089 C   0  0  0  0  0  0  0  0  0  0  0  0
   -2.3403   -0.2020   -1.1217 C   0  0  0  0  0  0  0  0  0  0  0  0
   -2.6897   -0.7390   -0.1156 C   0  0  0  0  0  0  0  0  0  0  0  0
   -1.8464   -1.0995    1.2922 S   0  0  0  0  0  0  0  0  0  0  0  0
   -0.3617   -0.4341    0.7597 N   0  0  0  0  0  0  0  0  0  0  0  0
    0.8120   -0.4093    1.4995 C   0  0  0  0  0  0  0  0  0  0  0  0
    1.0540   -0.8219    2.6193 O   0  0  0  0  0  0  0  0  0  0  0  0
    1.8176    0.2593    0.6341 C   0  0  0  0  0  0  0  0  0  0  0  0
    1.1926    0.5690   -0.5077 C   0  0  0  0  0  0  0  0  0  0  0  0
   -0.1156    0.1824   -0.5009 N   0  0  0  0  0  0  0  0  0  0  0  0
    2.8373    0.4326    0.9253 H   0  0  0  0  0  0  0  0  0  0  0  0
    1.6124    1.0656   -1.3725 H   0  0  0  0  0  0  0  0  0  0  0  0
  1  2  2  0
  2  3  1  0
  3  4  3  0
  4  5  1  0
  5  6  1  0
  6  7  1  0
  7  8  2  0
  7  9  1  0
  9 10  2  0
 10 11  1  0
 11  2  1  0
 11  6  1  0
  9 12  1  0
 10 13  1  0
M  END
>  <Energy>  (1) 
68.01948746103436

>  <Real charge>  (1) 
0

>  <Mult>  (1) 
1

>  <SMILES>  (1) 
O=c1c#csn2c(=O)ccn12

$$$$
