aryne_237 10
     RDKit          3D

  7  7  0  0  0  0  0  0  0  0999 V2000
    2.0929    0.5900   -0.1827 O   0  0  0  0  0  0  0  0  0  0  0  0
    0.9233    0.2743    0.0197 C   0  0  0  0  0  0  0  0  0  0  0  0
    0.3590   -0.9321   -0.4954 N   0  0  0  0  0  0  0  0  0  0  0  0
   -0.8566   -1.2821   -0.2978 N   0  0  0  0  0  0  0  0  0  0  0  0
   -1.5244   -0.3962    0.4375 C   0  0  0  0  0  0  0  0  0  0  0  0
   -1.1000    0.6167    0.8862 C   0  0  0  0  0  0  0  0  0  0  0  0
    0.1059    1.1293    0.7863 O   0  0  0  0  0  0  0  0  0  0  0  0
  1  2  2  0
  2  3  1  0
  3  4  2  0
  4  5  1  0
  5  6  3  0
  6  7  1  0
  7  2  1  0
M  END
>  <Energy>  (1) 
91.91254835001936

>  <Real charge>  (1) 
0

>  <Mult>  (1) 
1

>  <SMILES>  (1) 
O=c1nnc#co1

$$$$
