aryne_110 28
     RDKit          3D

 13 14  0  0  0  0  0  0  0  0999 V2000
    2.4213   -0.1475    1.1951 C   0  0  0  0  0  0  0  0  0  0  0  0
    1.6445    1.0184    0.9100 N   0  0  0  0  0  0  0  0  0  0  0  0
    0.4412    0.7373    0.2506 C   0  0  0  0  0  0  0  0  0  0  0  0
   -0.1861    1.7812   -0.2383 N   0  0  0  0  0  0  0  0  0  0  0  0
   -1.6461    1.6406   -1.0419 S   0  0  0  0  0  0  0  0  0  0  0  0
   -1.9965   -0.0496   -1.0367 C   0  0  0  0  0  0  0  0  0  0  0  0
   -1.1798   -0.9426   -0.4751 C   0  0  0  0  0  0  0  0  0  0  0  0
   -0.0034   -0.6254    0.1587 N   0  0  0  0  0  0  0  0  0  0  0  0
    0.8275   -1.7411    0.5656 O   0  0  0  0  0  0  0  0  0  0  0  0
    1.9543   -1.2239    1.0131 C   0  0  0  0  0  0  0  0  0  0  0  0
    2.0378    1.9291    0.7103 H   0  0  0  0  0  0  0  0  0  0  0  0
   -2.9114   -0.3731   -1.5205 H   0  0  0  0  0  0  0  0  0  0  0  0
   -1.4032   -2.0035   -0.4909 H   0  0  0  0  0  0  0  0  0  0  0  0
  1  2  1  0
  2  3  1  0
  3  4  2  0
  4  5  1  0
  5  6  1  0
  6  7  2  0
  7  8  1  0
  8  9  1  0
  9 10  1  0
 10  1  3  0
  8  3  1  0
  2 11  1  0
  6 12  1  0
  7 13  1  0
M  END
>  <Energy>  (1) 
67.55034789304598

>  <Real charge>  (1) 
0

>  <Mult>  (1) 
1

>  <SMILES>  (1) 
c1[nH]c2nsccn-2oc#1

$$$$
